8
scale = 0.70000
Cs  0.0000000000  0.0000000000  0.0000000000
Cs  2.4545855740  2.4545855740  0.0000000000
Cs  2.4545855740  0.0000000000  2.4545855740
Cs  -0.0000000000  2.4545855740  2.4545855740
Cl  0.0000000000  0.0000000000  2.4545855740
Cl  2.4545855740  0.0000000000  0.0000000000
Cl  -0.0000000000  2.4545855740  0.0000000000
Cl  2.4545855740  2.4545855740  2.4545855740
8
scale = 0.75000
Cs  0.0000000000  0.0000000000  0.0000000000
Cs  2.6299131150  2.6299131150  0.0000000000
Cs  2.6299131150  0.0000000000  2.6299131150
Cs  -0.0000000000  2.6299131150  2.6299131150
Cl  0.0000000000  0.0000000000  2.6299131150
Cl  2.6299131150  0.0000000000  0.0000000000
Cl  -0.0000000000  2.6299131150  0.0000000000
Cl  2.6299131150  2.6299131150  2.6299131150
8
scale = 0.80000
Cs  0.0000000000  0.0000000000  0.0000000000
Cs  2.8052406560  2.8052406560  0.0000000000
Cs  2.8052406560  0.0000000000  2.8052406560
Cs  -0.0000000000  2.8052406560  2.8052406560
Cl  0.0000000000  0.0000000000  2.8052406560
Cl  2.8052406560  0.0000000000  0.0000000000
Cl  -0.0000000000  2.8052406560  0.0000000000
Cl  2.8052406560  2.8052406560  2.8052406560
8
scale = 0.85000
Cs  0.0000000000  0.0000000000  0.0000000000
Cs  2.9805681970  2.9805681970  0.0000000000
Cs  2.9805681970  0.0000000000  2.9805681970
Cs  -0.0000000000  2.9805681970  2.9805681970
Cl  0.0000000000  0.0000000000  2.9805681970
Cl  2.9805681970  0.0000000000  0.0000000000
Cl  -0.0000000000  2.9805681970  0.0000000000
Cl  2.9805681970  2.9805681970  2.9805681970
8
scale = 0.90000
Cs  0.0000000000  0.0000000000  0.0000000000
Cs  3.1558957380  3.1558957380  0.0000000000
Cs  3.1558957380  0.0000000000  3.1558957380
Cs  -0.0000000000  3.1558957380  3.1558957380
Cl  0.0000000000  0.0000000000  3.1558957380
Cl  3.1558957380  0.0000000000  0.0000000000
Cl  -0.0000000000  3.1558957380  0.0000000000
Cl  3.1558957380  3.1558957380  3.1558957380
8
scale = 0.95000
Cs  0.0000000000  0.0000000000  0.0000000000
Cs  3.3312232790  3.3312232790  0.0000000000
Cs  3.3312232790  0.0000000000  3.3312232790
Cs  -0.0000000000  3.3312232790  3.3312232790
Cl  0.0000000000  0.0000000000  3.3312232790
Cl  3.3312232790  0.0000000000  0.0000000000
Cl  -0.0000000000  3.3312232790  0.0000000000
Cl  3.3312232790  3.3312232790  3.3312232790
8
scale = 1.00000
Cs  0.0000000000  0.0000000000  0.0000000000
Cs  3.5065508200  3.5065508200  0.0000000000
Cs  3.5065508200  0.0000000000  3.5065508200
Cs  -0.0000000000  3.5065508200  3.5065508200
Cl  0.0000000000  0.0000000000  3.5065508200
Cl  3.5065508200  0.0000000000  0.0000000000
Cl  -0.0000000000  3.5065508200  0.0000000000
Cl  3.5065508200  3.5065508200  3.5065508200
8
scale = 1.05000
Cs  0.0000000000  0.0000000000  0.0000000000
Cs  3.6818783610  3.6818783610  0.0000000000
Cs  3.6818783610  0.0000000000  3.6818783610
Cs  -0.0000000000  3.6818783610  3.6818783610
Cl  0.0000000000  0.0000000000  3.6818783610
Cl  3.6818783610  0.0000000000  0.0000000000
Cl  -0.0000000000  3.6818783610  0.0000000000
Cl  3.6818783610  3.6818783610  3.6818783610
8
scale = 1.10000
Cs  0.0000000000  0.0000000000  0.0000000000
Cs  3.8572059020  3.8572059020  0.0000000000
Cs  3.8572059020  0.0000000000  3.8572059020
Cs  -0.0000000000  3.8572059020  3.8572059020
Cl  0.0000000000  0.0000000000  3.8572059020
Cl  3.8572059020  0.0000000000  0.0000000000
Cl  -0.0000000000  3.8572059020  0.0000000000
Cl  3.8572059020  3.8572059020  3.8572059020
8
scale = 1.15000
Cs  0.0000000000  0.0000000000  0.0000000000
Cs  4.0325334430  4.0325334430  0.0000000000
Cs  4.0325334430  0.0000000000  4.0325334430
Cs  -0.0000000000  4.0325334430  4.0325334430
Cl  0.0000000000  0.0000000000  4.0325334430
Cl  4.0325334430  0.0000000000  0.0000000000
Cl  -0.0000000000  4.0325334430  0.0000000000
Cl  4.0325334430  4.0325334430  4.0325334430
8
scale = 1.20000
Cs  0.0000000000  0.0000000000  0.0000000000
Cs  4.2078609840  4.2078609840  0.0000000000
Cs  4.2078609840  0.0000000000  4.2078609840
Cs  -0.0000000000  4.2078609840  4.2078609840
Cl  0.0000000000  0.0000000000  4.2078609840
Cl  4.2078609840  0.0000000000  0.0000000000
Cl  -0.0000000000  4.2078609840  0.0000000000
Cl  4.2078609840  4.2078609840  4.2078609840
8
scale = 1.25000
Cs  0.0000000000  0.0000000000  0.0000000000
Cs  4.3831885250  4.3831885250  0.0000000000
Cs  4.3831885250  0.0000000000  4.3831885250
Cs  -0.0000000000  4.3831885250  4.3831885250
Cl  0.0000000000  0.0000000000  4.3831885250
Cl  4.3831885250  0.0000000000  0.0000000000
Cl  -0.0000000000  4.3831885250  0.0000000000
Cl  4.3831885250  4.3831885250  4.3831885250
8
scale = 1.30000
Cs  0.0000000000  0.0000000000  0.0000000000
Cs  4.5585160660  4.5585160660  0.0000000000
Cs  4.5585160660  0.0000000000  4.5585160660
Cs  -0.0000000000  4.5585160660  4.5585160660
Cl  0.0000000000  0.0000000000  4.5585160660
Cl  4.5585160660  0.0000000000  0.0000000000
Cl  -0.0000000000  4.5585160660  0.0000000000
Cl  4.5585160660  4.5585160660  4.5585160660
8
scale = 1.35000
Cs  0.0000000000  0.0000000000  0.0000000000
Cs  4.7338436070  4.7338436070  0.0000000000
Cs  4.7338436070  0.0000000000  4.7338436070
Cs  -0.0000000000  4.7338436070  4.7338436070
Cl  0.0000000000  0.0000000000  4.7338436070
Cl  4.7338436070  0.0000000000  0.0000000000
Cl  -0.0000000000  4.7338436070  0.0000000000
Cl  4.7338436070  4.7338436070  4.7338436070
8
scale = 1.40000
Cs  0.0000000000  0.0000000000  0.0000000000
Cs  4.9091711480  4.9091711480  0.0000000000
Cs  4.9091711480  0.0000000000  4.9091711480
Cs  -0.0000000000  4.9091711480  4.9091711480
Cl  0.0000000000  0.0000000000  4.9091711480
Cl  4.9091711480  0.0000000000  0.0000000000
Cl  -0.0000000000  4.9091711480  0.0000000000
Cl  4.9091711480  4.9091711480  4.9091711480
8
scale = 1.45000
Cs  0.0000000000  0.0000000000  0.0000000000
Cs  5.0844986890  5.0844986890  0.0000000000
Cs  5.0844986890  0.0000000000  5.0844986890
Cs  -0.0000000000  5.0844986890  5.0844986890
Cl  0.0000000000  0.0000000000  5.0844986890
Cl  5.0844986890  0.0000000000  0.0000000000
Cl  -0.0000000000  5.0844986890  0.0000000000
Cl  5.0844986890  5.0844986890  5.0844986890
8
scale = 1.50000
Cs  0.0000000000  0.0000000000  0.0000000000
Cs  5.2598262300  5.2598262300  0.0000000000
Cs  5.2598262300  0.0000000000  5.2598262300
Cs  -0.0000000000  5.2598262300  5.2598262300
Cl  0.0000000000  0.0000000000  5.2598262300
Cl  5.2598262300  0.0000000000  0.0000000000
Cl  -0.0000000000  5.2598262300  0.0000000000
Cl  5.2598262300  5.2598262300  5.2598262300
8
scale = 1.55000
Cs  0.0000000000  0.0000000000  0.0000000000
Cs  5.4351537710  5.4351537710  0.0000000000
Cs  5.4351537710  0.0000000000  5.4351537710
Cs  -0.0000000000  5.4351537710  5.4351537710
Cl  0.0000000000  0.0000000000  5.4351537710
Cl  5.4351537710  0.0000000000  0.0000000000
Cl  -0.0000000000  5.4351537710  0.0000000000
Cl  5.4351537710  5.4351537710  5.4351537710
8
scale = 1.60000
Cs  0.0000000000  0.0000000000  0.0000000000
Cs  5.6104813120  5.6104813120  0.0000000000
Cs  5.6104813120  0.0000000000  5.6104813120
Cs  -0.0000000000  5.6104813120  5.6104813120
Cl  0.0000000000  0.0000000000  5.6104813120
Cl  5.6104813120  0.0000000000  0.0000000000
Cl  -0.0000000000  5.6104813120  0.0000000000
Cl  5.6104813120  5.6104813120  5.6104813120
8
scale = 1.65000
Cs  0.0000000000  0.0000000000  0.0000000000
Cs  5.7858088530  5.7858088530  0.0000000000
Cs  5.7858088530  0.0000000000  5.7858088530
Cs  -0.0000000000  5.7858088530  5.7858088530
Cl  0.0000000000  0.0000000000  5.7858088530
Cl  5.7858088530  0.0000000000  0.0000000000
Cl  -0.0000000000  5.7858088530  0.0000000000
Cl  5.7858088530  5.7858088530  5.7858088530
8
scale = 1.70000
Cs  0.0000000000  0.0000000000  0.0000000000
Cs  5.9611363940  5.9611363940  0.0000000000
Cs  5.9611363940  0.0000000000  5.9611363940
Cs  -0.0000000000  5.9611363940  5.9611363940
Cl  0.0000000000  0.0000000000  5.9611363940
Cl  5.9611363940  0.0000000000  0.0000000000
Cl  -0.0000000000  5.9611363940  0.0000000000
Cl  5.9611363940  5.9611363940  5.9611363940
8
scale = 1.75000
Cs  0.0000000000  0.0000000000  0.0000000000
Cs  6.1364639350  6.1364639350  0.0000000000
Cs  6.1364639350  0.0000000000  6.1364639350
Cs  -0.0000000000  6.1364639350  6.1364639350
Cl  0.0000000000  0.0000000000  6.1364639350
Cl  6.1364639350  0.0000000000  0.0000000000
Cl  -0.0000000000  6.1364639350  0.0000000000
Cl  6.1364639350  6.1364639350  6.1364639350
8
scale = 1.80000
Cs  0.0000000000  0.0000000000  0.0000000000
Cs  6.3117914760  6.3117914760  0.0000000000
Cs  6.3117914760  0.0000000000  6.3117914760
Cs  -0.0000000000  6.3117914760  6.3117914760
Cl  0.0000000000  0.0000000000  6.3117914760
Cl  6.3117914760  0.0000000000  0.0000000000
Cl  -0.0000000000  6.3117914760  0.0000000000
Cl  6.3117914760  6.3117914760  6.3117914760
8
scale = 1.85000
Cs  0.0000000000  0.0000000000  0.0000000000
Cs  6.4871190170  6.4871190170  0.0000000000
Cs  6.4871190170  0.0000000000  6.4871190170
Cs  -0.0000000000  6.4871190170  6.4871190170
Cl  0.0000000000  0.0000000000  6.4871190170
Cl  6.4871190170  0.0000000000  0.0000000000
Cl  -0.0000000000  6.4871190170  0.0000000000
Cl  6.4871190170  6.4871190170  6.4871190170
8
scale = 1.90000
Cs  0.0000000000  0.0000000000  0.0000000000
Cs  6.6624465580  6.6624465580  0.0000000000
Cs  6.6624465580  0.0000000000  6.6624465580
Cs  -0.0000000000  6.6624465580  6.6624465580
Cl  0.0000000000  0.0000000000  6.6624465580
Cl  6.6624465580  0.0000000000  0.0000000000
Cl  -0.0000000000  6.6624465580  0.0000000000
Cl  6.6624465580  6.6624465580  6.6624465580
8
scale = 1.95000
Cs  0.0000000000  0.0000000000  0.0000000000
Cs  6.8377740990  6.8377740990  0.0000000000
Cs  6.8377740990  0.0000000000  6.8377740990
Cs  -0.0000000000  6.8377740990  6.8377740990
Cl  0.0000000000  0.0000000000  6.8377740990
Cl  6.8377740990  0.0000000000  0.0000000000
Cl  -0.0000000000  6.8377740990  0.0000000000
Cl  6.8377740990  6.8377740990  6.8377740990
8
scale = 2.00000
Cs  0.0000000000  0.0000000000  0.0000000000
Cs  7.0131016400  7.0131016400  0.0000000000
Cs  7.0131016400  0.0000000000  7.0131016400
Cs  -0.0000000000  7.0131016400  7.0131016400
Cl  0.0000000000  0.0000000000  7.0131016400
Cl  7.0131016400  0.0000000000  0.0000000000
Cl  -0.0000000000  7.0131016400  0.0000000000
Cl  7.0131016400  7.0131016400  7.0131016400
8
scale = 2.05000
Cs  0.0000000000  0.0000000000  0.0000000000
Cs  7.1884291810  7.1884291810  0.0000000000
Cs  7.1884291810  0.0000000000  7.1884291810
Cs  -0.0000000000  7.1884291810  7.1884291810
Cl  0.0000000000  0.0000000000  7.1884291810
Cl  7.1884291810  0.0000000000  0.0000000000
Cl  -0.0000000000  7.1884291810  0.0000000000
Cl  7.1884291810  7.1884291810  7.1884291810
8
scale = 2.10000
Cs  0.0000000000  0.0000000000  0.0000000000
Cs  7.3637567220  7.3637567220  0.0000000000
Cs  7.3637567220  0.0000000000  7.3637567220
Cs  -0.0000000000  7.3637567220  7.3637567220
Cl  0.0000000000  0.0000000000  7.3637567220
Cl  7.3637567220  0.0000000000  0.0000000000
Cl  -0.0000000000  7.3637567220  0.0000000000
Cl  7.3637567220  7.3637567220  7.3637567220
8
scale = 2.15000
Cs  0.0000000000  0.0000000000  0.0000000000
Cs  7.5390842630  7.5390842630  0.0000000000
Cs  7.5390842630  0.0000000000  7.5390842630
Cs  -0.0000000000  7.5390842630  7.5390842630
Cl  0.0000000000  0.0000000000  7.5390842630
Cl  7.5390842630  0.0000000000  0.0000000000
Cl  -0.0000000000  7.5390842630  0.0000000000
Cl  7.5390842630  7.5390842630  7.5390842630
8
scale = 2.20000
Cs  0.0000000000  0.0000000000  0.0000000000
Cs  7.7144118040  7.7144118040  0.0000000000
Cs  7.7144118040  0.0000000000  7.7144118040
Cs  -0.0000000000  7.7144118040  7.7144118040
Cl  0.0000000000  0.0000000000  7.7144118040
Cl  7.7144118040  0.0000000000  0.0000000000
Cl  -0.0000000000  7.7144118040  0.0000000000
Cl  7.7144118040  7.7144118040  7.7144118040
8
scale = 2.25000
Cs  0.0000000000  0.0000000000  0.0000000000
Cs  7.8897393450  7.8897393450  0.0000000000
Cs  7.8897393450  0.0000000000  7.8897393450
Cs  -0.0000000000  7.8897393450  7.8897393450
Cl  0.0000000000  0.0000000000  7.8897393450
Cl  7.8897393450  0.0000000000  0.0000000000
Cl  -0.0000000000  7.8897393450  0.0000000000
Cl  7.8897393450  7.8897393450  7.8897393450
8
scale = 2.30000
Cs  0.0000000000  0.0000000000  0.0000000000
Cs  8.0650668860  8.0650668860  0.0000000000
Cs  8.0650668860  0.0000000000  8.0650668860
Cs  -0.0000000000  8.0650668860  8.0650668860
Cl  0.0000000000  0.0000000000  8.0650668860
Cl  8.0650668860  0.0000000000  0.0000000000
Cl  -0.0000000000  8.0650668860  0.0000000000
Cl  8.0650668860  8.0650668860  8.0650668860
8
scale = 2.35000
Cs  0.0000000000  0.0000000000  0.0000000000
Cs  8.2403944270  8.2403944270  0.0000000000
Cs  8.2403944270  0.0000000000  8.2403944270
Cs  -0.0000000000  8.2403944270  8.2403944270
Cl  0.0000000000  0.0000000000  8.2403944270
Cl  8.2403944270  0.0000000000  0.0000000000
Cl  -0.0000000000  8.2403944270  0.0000000000
Cl  8.2403944270  8.2403944270  8.2403944270
8
scale = 2.40000
Cs  0.0000000000  0.0000000000  0.0000000000
Cs  8.4157219680  8.4157219680  0.0000000000
Cs  8.4157219680  0.0000000000  8.4157219680
Cs  -0.0000000000  8.4157219680  8.4157219680
Cl  0.0000000000  0.0000000000  8.4157219680
Cl  8.4157219680  0.0000000000  0.0000000000
Cl  -0.0000000000  8.4157219680  0.0000000000
Cl  8.4157219680  8.4157219680  8.4157219680
8
scale = 2.45000
Cs  0.0000000000  0.0000000000  0.0000000000
Cs  8.5910495090  8.5910495090  0.0000000000
Cs  8.5910495090  0.0000000000  8.5910495090
Cs  -0.0000000000  8.5910495090  8.5910495090
Cl  0.0000000000  0.0000000000  8.5910495090
Cl  8.5910495090  0.0000000000  0.0000000000
Cl  -0.0000000000  8.5910495090  0.0000000000
Cl  8.5910495090  8.5910495090  8.5910495090
8
scale = 2.50000
Cs  0.0000000000  0.0000000000  0.0000000000
Cs  8.7663770500  8.7663770500  0.0000000000
Cs  8.7663770500  0.0000000000  8.7663770500
Cs  -0.0000000000  8.7663770500  8.7663770500
Cl  0.0000000000  0.0000000000  8.7663770500
Cl  8.7663770500  0.0000000000  0.0000000000
Cl  -0.0000000000  8.7663770500  0.0000000000
Cl  8.7663770500  8.7663770500  8.7663770500
8
scale = 2.55000
Cs  0.0000000000  0.0000000000  0.0000000000
Cs  8.9417045910  8.9417045910  0.0000000000
Cs  8.9417045910  0.0000000000  8.9417045910
Cs  -0.0000000000  8.9417045910  8.9417045910
Cl  0.0000000000  0.0000000000  8.9417045910
Cl  8.9417045910  0.0000000000  0.0000000000
Cl  -0.0000000000  8.9417045910  0.0000000000
Cl  8.9417045910  8.9417045910  8.9417045910
8
scale = 2.60000
Cs  0.0000000000  0.0000000000  0.0000000000
Cs  9.1170321320  9.1170321320  0.0000000000
Cs  9.1170321320  0.0000000000  9.1170321320
Cs  -0.0000000000  9.1170321320  9.1170321320
Cl  0.0000000000  0.0000000000  9.1170321320
Cl  9.1170321320  0.0000000000  0.0000000000
Cl  -0.0000000000  9.1170321320  0.0000000000
Cl  9.1170321320  9.1170321320  9.1170321320
8
scale = 2.65000
Cs  0.0000000000  0.0000000000  0.0000000000
Cs  9.2923596730  9.2923596730  0.0000000000
Cs  9.2923596730  0.0000000000  9.2923596730
Cs  -0.0000000000  9.2923596730  9.2923596730
Cl  0.0000000000  0.0000000000  9.2923596730
Cl  9.2923596730  0.0000000000  0.0000000000
Cl  -0.0000000000  9.2923596730  0.0000000000
Cl  9.2923596730  9.2923596730  9.2923596730
8
scale = 2.70000
Cs  0.0000000000  0.0000000000  0.0000000000
Cs  9.4676872140  9.4676872140  0.0000000000
Cs  9.4676872140  0.0000000000  9.4676872140
Cs  -0.0000000000  9.4676872140  9.4676872140
Cl  0.0000000000  0.0000000000  9.4676872140
Cl  9.4676872140  0.0000000000  0.0000000000
Cl  -0.0000000000  9.4676872140  0.0000000000
Cl  9.4676872140  9.4676872140  9.4676872140
8
scale = 2.75000
Cs  0.0000000000  0.0000000000  0.0000000000
Cs  9.6430147550  9.6430147550  0.0000000000
Cs  9.6430147550  0.0000000000  9.6430147550
Cs  -0.0000000000  9.6430147550  9.6430147550
Cl  0.0000000000  0.0000000000  9.6430147550
Cl  9.6430147550  0.0000000000  0.0000000000
Cl  -0.0000000000  9.6430147550  0.0000000000
Cl  9.6430147550  9.6430147550  9.6430147550
8
scale = 2.80000
Cs  0.0000000000  0.0000000000  0.0000000000
Cs  9.8183422960  9.8183422960  0.0000000000
Cs  9.8183422960  0.0000000000  9.8183422960
Cs  -0.0000000000  9.8183422960  9.8183422960
Cl  0.0000000000  0.0000000000  9.8183422960
Cl  9.8183422960  0.0000000000  0.0000000000
Cl  -0.0000000000  9.8183422960  0.0000000000
Cl  9.8183422960  9.8183422960  9.8183422960
8
scale = 2.85000
Cs  0.0000000000  0.0000000000  0.0000000000
Cs  9.9936698370  9.9936698370  0.0000000000
Cs  9.9936698370  0.0000000000  9.9936698370
Cs  -0.0000000000  9.9936698370  9.9936698370
Cl  0.0000000000  0.0000000000  9.9936698370
Cl  9.9936698370  0.0000000000  0.0000000000
Cl  -0.0000000000  9.9936698370  0.0000000000
Cl  9.9936698370  9.9936698370  9.9936698370
8
scale = 2.90000
Cs  0.0000000000  0.0000000000  0.0000000000
Cs  10.1689973780  10.1689973780  0.0000000000
Cs  10.1689973780  0.0000000000  10.1689973780
Cs  -0.0000000000  10.1689973780  10.1689973780
Cl  0.0000000000  0.0000000000  10.1689973780
Cl  10.1689973780  0.0000000000  0.0000000000
Cl  -0.0000000000  10.1689973780  0.0000000000
Cl  10.1689973780  10.1689973780  10.1689973780
8
scale = 2.95000
Cs  0.0000000000  0.0000000000  0.0000000000
Cs  10.3443249190  10.3443249190  0.0000000000
Cs  10.3443249190  0.0000000000  10.3443249190
Cs  -0.0000000000  10.3443249190  10.3443249190
Cl  0.0000000000  0.0000000000  10.3443249190
Cl  10.3443249190  0.0000000000  0.0000000000
Cl  -0.0000000000  10.3443249190  0.0000000000
Cl  10.3443249190  10.3443249190  10.3443249190
