4
scale = 0.70000
Li  0.0000000000  0.0000000000  0.0000000000
Li  -0.0000000000  1.5167826380  1.5167826380
Li  1.5167826380  0.0000000000  1.5167826380
Li  1.5167826380  1.5167826380  0.0000000000
4
scale = 0.75000
Li  0.0000000000  0.0000000000  0.0000000000
Li  -0.0000000000  1.6251242550  1.6251242550
Li  1.6251242550  0.0000000000  1.6251242550
Li  1.6251242550  1.6251242550  0.0000000000
4
scale = 0.80000
Li  0.0000000000  0.0000000000  0.0000000000
Li  -0.0000000000  1.7334658720  1.7334658720
Li  1.7334658720  0.0000000000  1.7334658720
Li  1.7334658720  1.7334658720  0.0000000000
4
scale = 0.85000
Li  0.0000000000  0.0000000000  0.0000000000
Li  -0.0000000000  1.8418074890  1.8418074890
Li  1.8418074890  0.0000000000  1.8418074890
Li  1.8418074890  1.8418074890  0.0000000000
4
scale = 0.90000
Li  0.0000000000  0.0000000000  0.0000000000
Li  -0.0000000000  1.9501491060  1.9501491060
Li  1.9501491060  0.0000000000  1.9501491060
Li  1.9501491060  1.9501491060  0.0000000000
4
scale = 0.95000
Li  0.0000000000  0.0000000000  0.0000000000
Li  -0.0000000000  2.0584907230  2.0584907230
Li  2.0584907230  0.0000000000  2.0584907230
Li  2.0584907230  2.0584907230  0.0000000000
4
scale = 1.00000
Li  0.0000000000  0.0000000000  0.0000000000
Li  -0.0000000000  2.1668323400  2.1668323400
Li  2.1668323400  0.0000000000  2.1668323400
Li  2.1668323400  2.1668323400  0.0000000000
4
scale = 1.05000
Li  0.0000000000  0.0000000000  0.0000000000
Li  -0.0000000000  2.2751739570  2.2751739570
Li  2.2751739570  0.0000000000  2.2751739570
Li  2.2751739570  2.2751739570  0.0000000000
4
scale = 1.10000
Li  0.0000000000  0.0000000000  0.0000000000
Li  -0.0000000000  2.3835155740  2.3835155740
Li  2.3835155740  0.0000000000  2.3835155740
Li  2.3835155740  2.3835155740  0.0000000000
4
scale = 1.15000
Li  0.0000000000  0.0000000000  0.0000000000
Li  -0.0000000000  2.4918571910  2.4918571910
Li  2.4918571910  0.0000000000  2.4918571910
Li  2.4918571910  2.4918571910  0.0000000000
4
scale = 1.20000
Li  0.0000000000  0.0000000000  0.0000000000
Li  -0.0000000000  2.6001988080  2.6001988080
Li  2.6001988080  0.0000000000  2.6001988080
Li  2.6001988080  2.6001988080  0.0000000000
4
scale = 1.25000
Li  0.0000000000  0.0000000000  0.0000000000
Li  -0.0000000000  2.7085404250  2.7085404250
Li  2.7085404250  0.0000000000  2.7085404250
Li  2.7085404250  2.7085404250  0.0000000000
4
scale = 1.30000
Li  0.0000000000  0.0000000000  0.0000000000
Li  -0.0000000000  2.8168820420  2.8168820420
Li  2.8168820420  0.0000000000  2.8168820420
Li  2.8168820420  2.8168820420  0.0000000000
4
scale = 1.35000
Li  0.0000000000  0.0000000000  0.0000000000
Li  -0.0000000000  2.9252236590  2.9252236590
Li  2.9252236590  0.0000000000  2.9252236590
Li  2.9252236590  2.9252236590  0.0000000000
4
scale = 1.40000
Li  0.0000000000  0.0000000000  0.0000000000
Li  -0.0000000000  3.0335652760  3.0335652760
Li  3.0335652760  0.0000000000  3.0335652760
Li  3.0335652760  3.0335652760  0.0000000000
4
scale = 1.45000
Li  0.0000000000  0.0000000000  0.0000000000
Li  -0.0000000000  3.1419068930  3.1419068930
Li  3.1419068930  0.0000000000  3.1419068930
Li  3.1419068930  3.1419068930  0.0000000000
4
scale = 1.50000
Li  0.0000000000  0.0000000000  0.0000000000
Li  -0.0000000000  3.2502485100  3.2502485100
Li  3.2502485100  0.0000000000  3.2502485100
Li  3.2502485100  3.2502485100  0.0000000000
4
scale = 1.55000
Li  0.0000000000  0.0000000000  0.0000000000
Li  -0.0000000000  3.3585901270  3.3585901270
Li  3.3585901270  0.0000000000  3.3585901270
Li  3.3585901270  3.3585901270  0.0000000000
4
scale = 1.60000
Li  0.0000000000  0.0000000000  0.0000000000
Li  -0.0000000000  3.4669317440  3.4669317440
Li  3.4669317440  0.0000000000  3.4669317440
Li  3.4669317440  3.4669317440  0.0000000000
4
scale = 1.65000
Li  0.0000000000  0.0000000000  0.0000000000
Li  -0.0000000000  3.5752733610  3.5752733610
Li  3.5752733610  0.0000000000  3.5752733610
Li  3.5752733610  3.5752733610  0.0000000000
4
scale = 1.70000
Li  0.0000000000  0.0000000000  0.0000000000
Li  -0.0000000000  3.6836149780  3.6836149780
Li  3.6836149780  0.0000000000  3.6836149780
Li  3.6836149780  3.6836149780  0.0000000000
4
scale = 1.75000
Li  0.0000000000  0.0000000000  0.0000000000
Li  -0.0000000000  3.7919565950  3.7919565950
Li  3.7919565950  0.0000000000  3.7919565950
Li  3.7919565950  3.7919565950  0.0000000000
4
scale = 1.80000
Li  0.0000000000  0.0000000000  0.0000000000
Li  -0.0000000000  3.9002982120  3.9002982120
Li  3.9002982120  0.0000000000  3.9002982120
Li  3.9002982120  3.9002982120  0.0000000000
4
scale = 1.85000
Li  0.0000000000  0.0000000000  0.0000000000
Li  -0.0000000000  4.0086398290  4.0086398290
Li  4.0086398290  0.0000000000  4.0086398290
Li  4.0086398290  4.0086398290  0.0000000000
4
scale = 1.90000
Li  0.0000000000  0.0000000000  0.0000000000
Li  -0.0000000000  4.1169814460  4.1169814460
Li  4.1169814460  0.0000000000  4.1169814460
Li  4.1169814460  4.1169814460  0.0000000000
4
scale = 1.95000
Li  0.0000000000  0.0000000000  0.0000000000
Li  -0.0000000000  4.2253230630  4.2253230630
Li  4.2253230630  0.0000000000  4.2253230630
Li  4.2253230630  4.2253230630  0.0000000000
4
scale = 2.00000
Li  0.0000000000  0.0000000000  0.0000000000
Li  -0.0000000000  4.3336646800  4.3336646800
Li  4.3336646800  0.0000000000  4.3336646800
Li  4.3336646800  4.3336646800  0.0000000000
4
scale = 2.05000
Li  0.0000000000  0.0000000000  0.0000000000
Li  -0.0000000000  4.4420062970  4.4420062970
Li  4.4420062970  0.0000000000  4.4420062970
Li  4.4420062970  4.4420062970  0.0000000000
4
scale = 2.10000
Li  0.0000000000  0.0000000000  0.0000000000
Li  -0.0000000000  4.5503479140  4.5503479140
Li  4.5503479140  0.0000000000  4.5503479140
Li  4.5503479140  4.5503479140  0.0000000000
4
scale = 2.15000
Li  0.0000000000  0.0000000000  0.0000000000
Li  -0.0000000000  4.6586895310  4.6586895310
Li  4.6586895310  0.0000000000  4.6586895310
Li  4.6586895310  4.6586895310  0.0000000000
4
scale = 2.20000
Li  0.0000000000  0.0000000000  0.0000000000
Li  -0.0000000000  4.7670311480  4.7670311480
Li  4.7670311480  0.0000000000  4.7670311480
Li  4.7670311480  4.7670311480  0.0000000000
4
scale = 2.25000
Li  0.0000000000  0.0000000000  0.0000000000
Li  -0.0000000000  4.8753727650  4.8753727650
Li  4.8753727650  0.0000000000  4.8753727650
Li  4.8753727650  4.8753727650  0.0000000000
4
scale = 2.30000
Li  0.0000000000  0.0000000000  0.0000000000
Li  -0.0000000000  4.9837143820  4.9837143820
Li  4.9837143820  0.0000000000  4.9837143820
Li  4.9837143820  4.9837143820  0.0000000000
4
scale = 2.35000
Li  0.0000000000  0.0000000000  0.0000000000
Li  -0.0000000000  5.0920559990  5.0920559990
Li  5.0920559990  0.0000000000  5.0920559990
Li  5.0920559990  5.0920559990  0.0000000000
4
scale = 2.40000
Li  0.0000000000  0.0000000000  0.0000000000
Li  -0.0000000000  5.2003976160  5.2003976160
Li  5.2003976160  0.0000000000  5.2003976160
Li  5.2003976160  5.2003976160  0.0000000000
4
scale = 2.45000
Li  0.0000000000  0.0000000000  0.0000000000
Li  -0.0000000000  5.3087392330  5.3087392330
Li  5.3087392330  0.0000000000  5.3087392330
Li  5.3087392330  5.3087392330  0.0000000000
4
scale = 2.50000
Li  0.0000000000  0.0000000000  0.0000000000
Li  -0.0000000000  5.4170808500  5.4170808500
Li  5.4170808500  0.0000000000  5.4170808500
Li  5.4170808500  5.4170808500  0.0000000000
4
scale = 2.55000
Li  0.0000000000  0.0000000000  0.0000000000
Li  -0.0000000000  5.5254224670  5.5254224670
Li  5.5254224670  0.0000000000  5.5254224670
Li  5.5254224670  5.5254224670  0.0000000000
4
scale = 2.60000
Li  0.0000000000  0.0000000000  0.0000000000
Li  -0.0000000000  5.6337640840  5.6337640840
Li  5.6337640840  0.0000000000  5.6337640840
Li  5.6337640840  5.6337640840  0.0000000000
4
scale = 2.65000
Li  0.0000000000  0.0000000000  0.0000000000
Li  -0.0000000000  5.7421057010  5.7421057010
Li  5.7421057010  0.0000000000  5.7421057010
Li  5.7421057010  5.7421057010  0.0000000000
4
scale = 2.70000
Li  0.0000000000  0.0000000000  0.0000000000
Li  -0.0000000000  5.8504473180  5.8504473180
Li  5.8504473180  0.0000000000  5.8504473180
Li  5.8504473180  5.8504473180  0.0000000000
4
scale = 2.75000
Li  0.0000000000  0.0000000000  0.0000000000
Li  -0.0000000000  5.9587889350  5.9587889350
Li  5.9587889350  0.0000000000  5.9587889350
Li  5.9587889350  5.9587889350  0.0000000000
4
scale = 2.80000
Li  0.0000000000  0.0000000000  0.0000000000
Li  -0.0000000000  6.0671305520  6.0671305520
Li  6.0671305520  0.0000000000  6.0671305520
Li  6.0671305520  6.0671305520  0.0000000000
4
scale = 2.85000
Li  0.0000000000  0.0000000000  0.0000000000
Li  -0.0000000000  6.1754721690  6.1754721690
Li  6.1754721690  0.0000000000  6.1754721690
Li  6.1754721690  6.1754721690  0.0000000000
4
scale = 2.90000
Li  0.0000000000  0.0000000000  0.0000000000
Li  -0.0000000000  6.2838137860  6.2838137860
Li  6.2838137860  0.0000000000  6.2838137860
Li  6.2838137860  6.2838137860  0.0000000000
4
scale = 2.95000
Li  0.0000000000  0.0000000000  0.0000000000
Li  -0.0000000000  6.3921554030  6.3921554030
Li  6.3921554030  0.0000000000  6.3921554030
Li  6.3921554030  6.3921554030  0.0000000000
