8
scale = 0.70000
Li  0.0000000000  0.0000000000  0.0000000000
Li  2.0889241870  2.0889241870  0.0000000000
Li  2.0889241870  0.0000000000  2.0889241870
Li  -0.0000000000  2.0889241870  2.0889241870
I   0.0000000000  0.0000000000  2.0889241870
I   2.0889241870  0.0000000000  0.0000000000
I   -0.0000000000  2.0889241870  0.0000000000
I   2.0889241870  2.0889241870  2.0889241940
8
scale = 0.75000
Li  0.0000000000  0.0000000000  0.0000000000
Li  2.2381330575  2.2381330575  0.0000000000
Li  2.2381330575  0.0000000000  2.2381330575
Li  -0.0000000000  2.2381330575  2.2381330575
I   0.0000000000  0.0000000000  2.2381330575
I   2.2381330575  0.0000000000  0.0000000000
I   -0.0000000000  2.2381330575  0.0000000000
I   2.2381330575  2.2381330575  2.2381330650
8
scale = 0.80000
Li  0.0000000000  0.0000000000  0.0000000000
Li  2.3873419280  2.3873419280  0.0000000000
Li  2.3873419280  0.0000000000  2.3873419280
Li  -0.0000000000  2.3873419280  2.3873419280
I   0.0000000000  0.0000000000  2.3873419280
I   2.3873419280  0.0000000000  0.0000000000
I   -0.0000000000  2.3873419280  0.0000000000
I   2.3873419280  2.3873419280  2.3873419360
8
scale = 0.85000
Li  0.0000000000  0.0000000000  0.0000000000
Li  2.5365507985  2.5365507985  0.0000000000
Li  2.5365507985  0.0000000000  2.5365507985
Li  -0.0000000000  2.5365507985  2.5365507985
I   0.0000000000  0.0000000000  2.5365507985
I   2.5365507985  0.0000000000  0.0000000000
I   -0.0000000000  2.5365507985  0.0000000000
I   2.5365507985  2.5365507985  2.5365508070
8
scale = 0.90000
Li  0.0000000000  0.0000000000  0.0000000000
Li  2.6857596690  2.6857596690  0.0000000000
Li  2.6857596690  0.0000000000  2.6857596690
Li  -0.0000000000  2.6857596690  2.6857596690
I   0.0000000000  0.0000000000  2.6857596690
I   2.6857596690  0.0000000000  0.0000000000
I   -0.0000000000  2.6857596690  0.0000000000
I   2.6857596690  2.6857596690  2.6857596780
8
scale = 0.95000
Li  0.0000000000  0.0000000000  0.0000000000
Li  2.8349685395  2.8349685395  0.0000000000
Li  2.8349685395  0.0000000000  2.8349685395
Li  -0.0000000000  2.8349685395  2.8349685395
I   0.0000000000  0.0000000000  2.8349685395
I   2.8349685395  0.0000000000  0.0000000000
I   -0.0000000000  2.8349685395  0.0000000000
I   2.8349685395  2.8349685395  2.8349685490
8
scale = 1.00000
Li  0.0000000000  0.0000000000  0.0000000000
Li  2.9841774100  2.9841774100  0.0000000000
Li  2.9841774100  0.0000000000  2.9841774100
Li  -0.0000000000  2.9841774100  2.9841774100
I   0.0000000000  0.0000000000  2.9841774100
I   2.9841774100  0.0000000000  0.0000000000
I   -0.0000000000  2.9841774100  0.0000000000
I   2.9841774100  2.9841774100  2.9841774200
8
scale = 1.05000
Li  0.0000000000  0.0000000000  0.0000000000
Li  3.1333862805  3.1333862805  0.0000000000
Li  3.1333862805  0.0000000000  3.1333862805
Li  -0.0000000000  3.1333862805  3.1333862805
I   0.0000000000  0.0000000000  3.1333862805
I   3.1333862805  0.0000000000  0.0000000000
I   -0.0000000000  3.1333862805  0.0000000000
I   3.1333862805  3.1333862805  3.1333862910
8
scale = 1.10000
Li  0.0000000000  0.0000000000  0.0000000000
Li  3.2825951510  3.2825951510  0.0000000000
Li  3.2825951510  0.0000000000  3.2825951510
Li  -0.0000000000  3.2825951510  3.2825951510
I   0.0000000000  0.0000000000  3.2825951510
I   3.2825951510  0.0000000000  0.0000000000
I   -0.0000000000  3.2825951510  0.0000000000
I   3.2825951510  3.2825951510  3.2825951620
8
scale = 1.15000
Li  0.0000000000  0.0000000000  0.0000000000
Li  3.4318040215  3.4318040215  0.0000000000
Li  3.4318040215  0.0000000000  3.4318040215
Li  -0.0000000000  3.4318040215  3.4318040215
I   0.0000000000  0.0000000000  3.4318040215
I   3.4318040215  0.0000000000  0.0000000000
I   -0.0000000000  3.4318040215  0.0000000000
I   3.4318040215  3.4318040215  3.4318040330
8
scale = 1.20000
Li  0.0000000000  0.0000000000  0.0000000000
Li  3.5810128920  3.5810128920  0.0000000000
Li  3.5810128920  0.0000000000  3.5810128920
Li  -0.0000000000  3.5810128920  3.5810128920
I   0.0000000000  0.0000000000  3.5810128920
I   3.5810128920  0.0000000000  0.0000000000
I   -0.0000000000  3.5810128920  0.0000000000
I   3.5810128920  3.5810128920  3.5810129040
8
scale = 1.25000
Li  0.0000000000  0.0000000000  0.0000000000
Li  3.7302217625  3.7302217625  0.0000000000
Li  3.7302217625  0.0000000000  3.7302217625
Li  -0.0000000000  3.7302217625  3.7302217625
I   0.0000000000  0.0000000000  3.7302217625
I   3.7302217625  0.0000000000  0.0000000000
I   -0.0000000000  3.7302217625  0.0000000000
I   3.7302217625  3.7302217625  3.7302217750
8
scale = 1.30000
Li  0.0000000000  0.0000000000  0.0000000000
Li  3.8794306330  3.8794306330  0.0000000000
Li  3.8794306330  0.0000000000  3.8794306330
Li  -0.0000000000  3.8794306330  3.8794306330
I   0.0000000000  0.0000000000  3.8794306330
I   3.8794306330  0.0000000000  0.0000000000
I   -0.0000000000  3.8794306330  0.0000000000
I   3.8794306330  3.8794306330  3.8794306460
8
scale = 1.35000
Li  0.0000000000  0.0000000000  0.0000000000
Li  4.0286395035  4.0286395035  0.0000000000
Li  4.0286395035  0.0000000000  4.0286395035
Li  -0.0000000000  4.0286395035  4.0286395035
I   0.0000000000  0.0000000000  4.0286395035
I   4.0286395035  0.0000000000  0.0000000000
I   -0.0000000000  4.0286395035  0.0000000000
I   4.0286395035  4.0286395035  4.0286395170
8
scale = 1.40000
Li  0.0000000000  0.0000000000  0.0000000000
Li  4.1778483740  4.1778483740  0.0000000000
Li  4.1778483740  0.0000000000  4.1778483740
Li  -0.0000000000  4.1778483740  4.1778483740
I   0.0000000000  0.0000000000  4.1778483740
I   4.1778483740  0.0000000000  0.0000000000
I   -0.0000000000  4.1778483740  0.0000000000
I   4.1778483740  4.1778483740  4.1778483880
8
scale = 1.45000
Li  0.0000000000  0.0000000000  0.0000000000
Li  4.3270572445  4.3270572445  0.0000000000
Li  4.3270572445  0.0000000000  4.3270572445
Li  -0.0000000000  4.3270572445  4.3270572445
I   0.0000000000  0.0000000000  4.3270572445
I   4.3270572445  0.0000000000  0.0000000000
I   -0.0000000000  4.3270572445  0.0000000000
I   4.3270572445  4.3270572445  4.3270572590
8
scale = 1.50000
Li  0.0000000000  0.0000000000  0.0000000000
Li  4.4762661150  4.4762661150  0.0000000000
Li  4.4762661150  0.0000000000  4.4762661150
Li  -0.0000000000  4.4762661150  4.4762661150
I   0.0000000000  0.0000000000  4.4762661150
I   4.4762661150  0.0000000000  0.0000000000
I   -0.0000000000  4.4762661150  0.0000000000
I   4.4762661150  4.4762661150  4.4762661300
8
scale = 1.55000
Li  0.0000000000  0.0000000000  0.0000000000
Li  4.6254749855  4.6254749855  0.0000000000
Li  4.6254749855  0.0000000000  4.6254749855
Li  -0.0000000000  4.6254749855  4.6254749855
I   0.0000000000  0.0000000000  4.6254749855
I   4.6254749855  0.0000000000  0.0000000000
I   -0.0000000000  4.6254749855  0.0000000000
I   4.6254749855  4.6254749855  4.6254750010
8
scale = 1.60000
Li  0.0000000000  0.0000000000  0.0000000000
Li  4.7746838560  4.7746838560  0.0000000000
Li  4.7746838560  0.0000000000  4.7746838560
Li  -0.0000000000  4.7746838560  4.7746838560
I   0.0000000000  0.0000000000  4.7746838560
I   4.7746838560  0.0000000000  0.0000000000
I   -0.0000000000  4.7746838560  0.0000000000
I   4.7746838560  4.7746838560  4.7746838720
8
scale = 1.65000
Li  0.0000000000  0.0000000000  0.0000000000
Li  4.9238927265  4.9238927265  0.0000000000
Li  4.9238927265  0.0000000000  4.9238927265
Li  -0.0000000000  4.9238927265  4.9238927265
I   0.0000000000  0.0000000000  4.9238927265
I   4.9238927265  0.0000000000  0.0000000000
I   -0.0000000000  4.9238927265  0.0000000000
I   4.9238927265  4.9238927265  4.9238927430
8
scale = 1.70000
Li  0.0000000000  0.0000000000  0.0000000000
Li  5.0731015970  5.0731015970  0.0000000000
Li  5.0731015970  0.0000000000  5.0731015970
Li  -0.0000000000  5.0731015970  5.0731015970
I   0.0000000000  0.0000000000  5.0731015970
I   5.0731015970  0.0000000000  0.0000000000
I   -0.0000000000  5.0731015970  0.0000000000
I   5.0731015970  5.0731015970  5.0731016140
8
scale = 1.75000
Li  0.0000000000  0.0000000000  0.0000000000
Li  5.2223104675  5.2223104675  0.0000000000
Li  5.2223104675  0.0000000000  5.2223104675
Li  -0.0000000000  5.2223104675  5.2223104675
I   0.0000000000  0.0000000000  5.2223104675
I   5.2223104675  0.0000000000  0.0000000000
I   -0.0000000000  5.2223104675  0.0000000000
I   5.2223104675  5.2223104675  5.2223104850
8
scale = 1.80000
Li  0.0000000000  0.0000000000  0.0000000000
Li  5.3715193380  5.3715193380  0.0000000000
Li  5.3715193380  0.0000000000  5.3715193380
Li  -0.0000000000  5.3715193380  5.3715193380
I   0.0000000000  0.0000000000  5.3715193380
I   5.3715193380  0.0000000000  0.0000000000
I   -0.0000000000  5.3715193380  0.0000000000
I   5.3715193380  5.3715193380  5.3715193560
8
scale = 1.85000
Li  0.0000000000  0.0000000000  0.0000000000
Li  5.5207282085  5.5207282085  0.0000000000
Li  5.5207282085  0.0000000000  5.5207282085
Li  -0.0000000000  5.5207282085  5.5207282085
I   0.0000000000  0.0000000000  5.5207282085
I   5.5207282085  0.0000000000  0.0000000000
I   -0.0000000000  5.5207282085  0.0000000000
I   5.5207282085  5.5207282085  5.5207282270
8
scale = 1.90000
Li  0.0000000000  0.0000000000  0.0000000000
Li  5.6699370790  5.6699370790  0.0000000000
Li  5.6699370790  0.0000000000  5.6699370790
Li  -0.0000000000  5.6699370790  5.6699370790
I   0.0000000000  0.0000000000  5.6699370790
I   5.6699370790  0.0000000000  0.0000000000
I   -0.0000000000  5.6699370790  0.0000000000
I   5.6699370790  5.6699370790  5.6699370980
8
scale = 1.95000
Li  0.0000000000  0.0000000000  0.0000000000
Li  5.8191459495  5.8191459495  0.0000000000
Li  5.8191459495  0.0000000000  5.8191459495
Li  -0.0000000000  5.8191459495  5.8191459495
I   0.0000000000  0.0000000000  5.8191459495
I   5.8191459495  0.0000000000  0.0000000000
I   -0.0000000000  5.8191459495  0.0000000000
I   5.8191459495  5.8191459495  5.8191459690
8
scale = 2.00000
Li  0.0000000000  0.0000000000  0.0000000000
Li  5.9683548200  5.9683548200  0.0000000000
Li  5.9683548200  0.0000000000  5.9683548200
Li  -0.0000000000  5.9683548200  5.9683548200
I   0.0000000000  0.0000000000  5.9683548200
I   5.9683548200  0.0000000000  0.0000000000
I   -0.0000000000  5.9683548200  0.0000000000
I   5.9683548200  5.9683548200  5.9683548400
8
scale = 2.05000
Li  0.0000000000  0.0000000000  0.0000000000
Li  6.1175636905  6.1175636905  0.0000000000
Li  6.1175636905  0.0000000000  6.1175636905
Li  -0.0000000000  6.1175636905  6.1175636905
I   0.0000000000  0.0000000000  6.1175636905
I   6.1175636905  0.0000000000  0.0000000000
I   -0.0000000000  6.1175636905  0.0000000000
I   6.1175636905  6.1175636905  6.1175637110
8
scale = 2.10000
Li  0.0000000000  0.0000000000  0.0000000000
Li  6.2667725610  6.2667725610  0.0000000000
Li  6.2667725610  0.0000000000  6.2667725610
Li  -0.0000000000  6.2667725610  6.2667725610
I   0.0000000000  0.0000000000  6.2667725610
I   6.2667725610  0.0000000000  0.0000000000
I   -0.0000000000  6.2667725610  0.0000000000
I   6.2667725610  6.2667725610  6.2667725820
8
scale = 2.15000
Li  0.0000000000  0.0000000000  0.0000000000
Li  6.4159814315  6.4159814315  0.0000000000
Li  6.4159814315  0.0000000000  6.4159814315
Li  -0.0000000000  6.4159814315  6.4159814315
I   0.0000000000  0.0000000000  6.4159814315
I   6.4159814315  0.0000000000  0.0000000000
I   -0.0000000000  6.4159814315  0.0000000000
I   6.4159814315  6.4159814315  6.4159814530
8
scale = 2.20000
Li  0.0000000000  0.0000000000  0.0000000000
Li  6.5651903020  6.5651903020  0.0000000000
Li  6.5651903020  0.0000000000  6.5651903020
Li  -0.0000000000  6.5651903020  6.5651903020
I   0.0000000000  0.0000000000  6.5651903020
I   6.5651903020  0.0000000000  0.0000000000
I   -0.0000000000  6.5651903020  0.0000000000
I   6.5651903020  6.5651903020  6.5651903240
8
scale = 2.25000
Li  0.0000000000  0.0000000000  0.0000000000
Li  6.7143991725  6.7143991725  0.0000000000
Li  6.7143991725  0.0000000000  6.7143991725
Li  -0.0000000000  6.7143991725  6.7143991725
I   0.0000000000  0.0000000000  6.7143991725
I   6.7143991725  0.0000000000  0.0000000000
I   -0.0000000000  6.7143991725  0.0000000000
I   6.7143991725  6.7143991725  6.7143991950
8
scale = 2.30000
Li  0.0000000000  0.0000000000  0.0000000000
Li  6.8636080430  6.8636080430  0.0000000000
Li  6.8636080430  0.0000000000  6.8636080430
Li  -0.0000000000  6.8636080430  6.8636080430
I   0.0000000000  0.0000000000  6.8636080430
I   6.8636080430  0.0000000000  0.0000000000
I   -0.0000000000  6.8636080430  0.0000000000
I   6.8636080430  6.8636080430  6.8636080660
8
scale = 2.35000
Li  0.0000000000  0.0000000000  0.0000000000
Li  7.0128169135  7.0128169135  0.0000000000
Li  7.0128169135  0.0000000000  7.0128169135
Li  -0.0000000000  7.0128169135  7.0128169135
I   0.0000000000  0.0000000000  7.0128169135
I   7.0128169135  0.0000000000  0.0000000000
I   -0.0000000000  7.0128169135  0.0000000000
I   7.0128169135  7.0128169135  7.0128169370
8
scale = 2.40000
Li  0.0000000000  0.0000000000  0.0000000000
Li  7.1620257840  7.1620257840  0.0000000000
Li  7.1620257840  0.0000000000  7.1620257840
Li  -0.0000000000  7.1620257840  7.1620257840
I   0.0000000000  0.0000000000  7.1620257840
I   7.1620257840  0.0000000000  0.0000000000
I   -0.0000000000  7.1620257840  0.0000000000
I   7.1620257840  7.1620257840  7.1620258080
8
scale = 2.45000
Li  0.0000000000  0.0000000000  0.0000000000
Li  7.3112346545  7.3112346545  0.0000000000
Li  7.3112346545  0.0000000000  7.3112346545
Li  -0.0000000000  7.3112346545  7.3112346545
I   0.0000000000  0.0000000000  7.3112346545
I   7.3112346545  0.0000000000  0.0000000000
I   -0.0000000000  7.3112346545  0.0000000000
I   7.3112346545  7.3112346545  7.3112346790
8
scale = 2.50000
Li  0.0000000000  0.0000000000  0.0000000000
Li  7.4604435250  7.4604435250  0.0000000000
Li  7.4604435250  0.0000000000  7.4604435250
Li  -0.0000000000  7.4604435250  7.4604435250
I   0.0000000000  0.0000000000  7.4604435250
I   7.4604435250  0.0000000000  0.0000000000
I   -0.0000000000  7.4604435250  0.0000000000
I   7.4604435250  7.4604435250  7.4604435500
8
scale = 2.55000
Li  0.0000000000  0.0000000000  0.0000000000
Li  7.6096523955  7.6096523955  0.0000000000
Li  7.6096523955  0.0000000000  7.6096523955
Li  -0.0000000000  7.6096523955  7.6096523955
I   0.0000000000  0.0000000000  7.6096523955
I   7.6096523955  0.0000000000  0.0000000000
I   -0.0000000000  7.6096523955  0.0000000000
I   7.6096523955  7.6096523955  7.6096524210
8
scale = 2.60000
Li  0.0000000000  0.0000000000  0.0000000000
Li  7.7588612660  7.7588612660  0.0000000000
Li  7.7588612660  0.0000000000  7.7588612660
Li  -0.0000000000  7.7588612660  7.7588612660
I   0.0000000000  0.0000000000  7.7588612660
I   7.7588612660  0.0000000000  0.0000000000
I   -0.0000000000  7.7588612660  0.0000000000
I   7.7588612660  7.7588612660  7.7588612920
8
scale = 2.65000
Li  0.0000000000  0.0000000000  0.0000000000
Li  7.9080701365  7.9080701365  0.0000000000
Li  7.9080701365  0.0000000000  7.9080701365
Li  -0.0000000000  7.9080701365  7.9080701365
I   0.0000000000  0.0000000000  7.9080701365
I   7.9080701365  0.0000000000  0.0000000000
I   -0.0000000000  7.9080701365  0.0000000000
I   7.9080701365  7.9080701365  7.9080701630
8
scale = 2.70000
Li  0.0000000000  0.0000000000  0.0000000000
Li  8.0572790070  8.0572790070  0.0000000000
Li  8.0572790070  0.0000000000  8.0572790070
Li  -0.0000000000  8.0572790070  8.0572790070
I   0.0000000000  0.0000000000  8.0572790070
I   8.0572790070  0.0000000000  0.0000000000
I   -0.0000000000  8.0572790070  0.0000000000
I   8.0572790070  8.0572790070  8.0572790340
8
scale = 2.75000
Li  0.0000000000  0.0000000000  0.0000000000
Li  8.2064878775  8.2064878775  0.0000000000
Li  8.2064878775  0.0000000000  8.2064878775
Li  -0.0000000000  8.2064878775  8.2064878775
I   0.0000000000  0.0000000000  8.2064878775
I   8.2064878775  0.0000000000  0.0000000000
I   -0.0000000000  8.2064878775  0.0000000000
I   8.2064878775  8.2064878775  8.2064879050
8
scale = 2.80000
Li  0.0000000000  0.0000000000  0.0000000000
Li  8.3556967480  8.3556967480  0.0000000000
Li  8.3556967480  0.0000000000  8.3556967480
Li  -0.0000000000  8.3556967480  8.3556967480
I   0.0000000000  0.0000000000  8.3556967480
I   8.3556967480  0.0000000000  0.0000000000
I   -0.0000000000  8.3556967480  0.0000000000
I   8.3556967480  8.3556967480  8.3556967760
8
scale = 2.85000
Li  0.0000000000  0.0000000000  0.0000000000
Li  8.5049056185  8.5049056185  0.0000000000
Li  8.5049056185  0.0000000000  8.5049056185
Li  -0.0000000000  8.5049056185  8.5049056185
I   0.0000000000  0.0000000000  8.5049056185
I   8.5049056185  0.0000000000  0.0000000000
I   -0.0000000000  8.5049056185  0.0000000000
I   8.5049056185  8.5049056185  8.5049056470
8
scale = 2.90000
Li  0.0000000000  0.0000000000  0.0000000000
Li  8.6541144890  8.6541144890  0.0000000000
Li  8.6541144890  0.0000000000  8.6541144890
Li  -0.0000000000  8.6541144890  8.6541144890
I   0.0000000000  0.0000000000  8.6541144890
I   8.6541144890  0.0000000000  0.0000000000
I   -0.0000000000  8.6541144890  0.0000000000
I   8.6541144890  8.6541144890  8.6541145180
8
scale = 2.95000
Li  0.0000000000  0.0000000000  0.0000000000
Li  8.8033233595  8.8033233595  0.0000000000
Li  8.8033233595  0.0000000000  8.8033233595
Li  -0.0000000000  8.8033233595  8.8033233595
I   0.0000000000  0.0000000000  8.8033233595
I   8.8033233595  0.0000000000  0.0000000000
I   -0.0000000000  8.8033233595  0.0000000000
I   8.8033233595  8.8033233595  8.8033233890
