16
scale = 0.70000
Na  0.0132583920  0.0132583920  0.0132583920
Na  1.4905364880  4.4185758890  1.4640197040
Na  5.8958539850  2.9412977930  0.0132583920
Na  4.4185758890  4.4450926730  1.4640197040
Na  0.0132583920  5.8958539850  2.9412977930
Na  1.4905364880  1.4905364880  1.4905364880
Na  5.8958539850  2.9678145840  2.9412977930
Na  4.4185758890  1.4640197040  1.4905364880
Na  1.4640197040  1.4905364880  4.4185758890
Na  1.4640197040  4.4185758890  4.4450926730
Na  2.9412977930  0.0132583920  5.8958539850
Na  2.9412977930  5.8958539850  2.9678145840
Na  4.4450926730  1.4640197040  4.4185758890
Na  2.9678145840  2.9412977930  5.8958539850
Na  2.9678145840  2.9678145840  2.9678145840
Na  4.4450926730  4.4450926730  4.4450926730
16
scale = 0.75000
Na  0.0142054200  0.0142054200  0.0142054200
Na  1.5970033800  4.7341884525  1.5685925400
Na  6.3169864125  3.1513904925  0.0142054200
Na  4.7341884525  4.7625992925  1.5685925400
Na  0.0142054200  6.3169864125  3.1513904925
Na  1.5970033800  1.5970033800  1.5970033800
Na  6.3169864125  3.1798013400  3.1513904925
Na  4.7341884525  1.5685925400  1.5970033800
Na  1.5685925400  1.5970033800  4.7341884525
Na  1.5685925400  4.7341884525  4.7625992925
Na  3.1513904925  0.0142054200  6.3169864125
Na  3.1513904925  6.3169864125  3.1798013400
Na  4.7625992925  1.5685925400  4.7341884525
Na  3.1798013400  3.1513904925  6.3169864125
Na  3.1798013400  3.1798013400  3.1798013400
Na  4.7625992925  4.7625992925  4.7625992925
16
scale = 0.80000
Na  0.0151524480  0.0151524480  0.0151524480
Na  1.7034702720  5.0498010160  1.6731653760
Na  6.7381188400  3.3614831920  0.0151524480
Na  5.0498010160  5.0801059120  1.6731653760
Na  0.0151524480  6.7381188400  3.3614831920
Na  1.7034702720  1.7034702720  1.7034702720
Na  6.7381188400  3.3917880960  3.3614831920
Na  5.0498010160  1.6731653760  1.7034702720
Na  1.6731653760  1.7034702720  5.0498010160
Na  1.6731653760  5.0498010160  5.0801059120
Na  3.3614831920  0.0151524480  6.7381188400
Na  3.3614831920  6.7381188400  3.3917880960
Na  5.0801059120  1.6731653760  5.0498010160
Na  3.3917880960  3.3614831920  6.7381188400
Na  3.3917880960  3.3917880960  3.3917880960
Na  5.0801059120  5.0801059120  5.0801059120
16
scale = 0.85000
Na  0.0160994760  0.0160994760  0.0160994760
Na  1.8099371640  5.3654135795  1.7777382120
Na  7.1592512675  3.5715758915  0.0160994760
Na  5.3654135795  5.3976125315  1.7777382120
Na  0.0160994760  7.1592512675  3.5715758915
Na  1.8099371640  1.8099371640  1.8099371640
Na  7.1592512675  3.6037748520  3.5715758915
Na  5.3654135795  1.7777382120  1.8099371640
Na  1.7777382120  1.8099371640  5.3654135795
Na  1.7777382120  5.3654135795  5.3976125315
Na  3.5715758915  0.0160994760  7.1592512675
Na  3.5715758915  7.1592512675  3.6037748520
Na  5.3976125315  1.7777382120  5.3654135795
Na  3.6037748520  3.5715758915  7.1592512675
Na  3.6037748520  3.6037748520  3.6037748520
Na  5.3976125315  5.3976125315  5.3976125315
16
scale = 0.90000
Na  0.0170465040  0.0170465040  0.0170465040
Na  1.9164040560  5.6810261430  1.8823110480
Na  7.5803836950  3.7816685910  0.0170465040
Na  5.6810261430  5.7151191510  1.8823110480
Na  0.0170465040  7.5803836950  3.7816685910
Na  1.9164040560  1.9164040560  1.9164040560
Na  7.5803836950  3.8157616080  3.7816685910
Na  5.6810261430  1.8823110480  1.9164040560
Na  1.8823110480  1.9164040560  5.6810261430
Na  1.8823110480  5.6810261430  5.7151191510
Na  3.7816685910  0.0170465040  7.5803836950
Na  3.7816685910  7.5803836950  3.8157616080
Na  5.7151191510  1.8823110480  5.6810261430
Na  3.8157616080  3.7816685910  7.5803836950
Na  3.8157616080  3.8157616080  3.8157616080
Na  5.7151191510  5.7151191510  5.7151191510
16
scale = 0.95000
Na  0.0179935320  0.0179935320  0.0179935320
Na  2.0228709480  5.9966387065  1.9868838840
Na  8.0015161225  3.9917612905  0.0179935320
Na  5.9966387065  6.0326257705  1.9868838840
Na  0.0179935320  8.0015161225  3.9917612905
Na  2.0228709480  2.0228709480  2.0228709480
Na  8.0015161225  4.0277483640  3.9917612905
Na  5.9966387065  1.9868838840  2.0228709480
Na  1.9868838840  2.0228709480  5.9966387065
Na  1.9868838840  5.9966387065  6.0326257705
Na  3.9917612905  0.0179935320  8.0015161225
Na  3.9917612905  8.0015161225  4.0277483640
Na  6.0326257705  1.9868838840  5.9966387065
Na  4.0277483640  3.9917612905  8.0015161225
Na  4.0277483640  4.0277483640  4.0277483640
Na  6.0326257705  6.0326257705  6.0326257705
16
scale = 1.00000
Na  0.0189405600  0.0189405600  0.0189405600
Na  2.1293378400  6.3122512700  2.0914567200
Na  8.4226485500  4.2018539900  0.0189405600
Na  6.3122512700  6.3501323900  2.0914567200
Na  0.0189405600  8.4226485500  4.2018539900
Na  2.1293378400  2.1293378400  2.1293378400
Na  8.4226485500  4.2397351200  4.2018539900
Na  6.3122512700  2.0914567200  2.1293378400
Na  2.0914567200  2.1293378400  6.3122512700
Na  2.0914567200  6.3122512700  6.3501323900
Na  4.2018539900  0.0189405600  8.4226485500
Na  4.2018539900  8.4226485500  4.2397351200
Na  6.3501323900  2.0914567200  6.3122512700
Na  4.2397351200  4.2018539900  8.4226485500
Na  4.2397351200  4.2397351200  4.2397351200
Na  6.3501323900  6.3501323900  6.3501323900
16
scale = 1.05000
Na  0.0198875880  0.0198875880  0.0198875880
Na  2.2358047320  6.6278638335  2.1960295560
Na  8.8437809775  4.4119466895  0.0198875880
Na  6.6278638335  6.6676390095  2.1960295560
Na  0.0198875880  8.8437809775  4.4119466895
Na  2.2358047320  2.2358047320  2.2358047320
Na  8.8437809775  4.4517218760  4.4119466895
Na  6.6278638335  2.1960295560  2.2358047320
Na  2.1960295560  2.2358047320  6.6278638335
Na  2.1960295560  6.6278638335  6.6676390095
Na  4.4119466895  0.0198875880  8.8437809775
Na  4.4119466895  8.8437809775  4.4517218760
Na  6.6676390095  2.1960295560  6.6278638335
Na  4.4517218760  4.4119466895  8.8437809775
Na  4.4517218760  4.4517218760  4.4517218760
Na  6.6676390095  6.6676390095  6.6676390095
16
scale = 1.10000
Na  0.0208346160  0.0208346160  0.0208346160
Na  2.3422716240  6.9434763970  2.3006023920
Na  9.2649134050  4.6220393890  0.0208346160
Na  6.9434763970  6.9851456290  2.3006023920
Na  0.0208346160  9.2649134050  4.6220393890
Na  2.3422716240  2.3422716240  2.3422716240
Na  9.2649134050  4.6637086320  4.6220393890
Na  6.9434763970  2.3006023920  2.3422716240
Na  2.3006023920  2.3422716240  6.9434763970
Na  2.3006023920  6.9434763970  6.9851456290
Na  4.6220393890  0.0208346160  9.2649134050
Na  4.6220393890  9.2649134050  4.6637086320
Na  6.9851456290  2.3006023920  6.9434763970
Na  4.6637086320  4.6220393890  9.2649134050
Na  4.6637086320  4.6637086320  4.6637086320
Na  6.9851456290  6.9851456290  6.9851456290
16
scale = 1.15000
Na  0.0217816440  0.0217816440  0.0217816440
Na  2.4487385160  7.2590889605  2.4051752280
Na  9.6860458325  4.8321320885  0.0217816440
Na  7.2590889605  7.3026522485  2.4051752280
Na  0.0217816440  9.6860458325  4.8321320885
Na  2.4487385160  2.4487385160  2.4487385160
Na  9.6860458325  4.8756953880  4.8321320885
Na  7.2590889605  2.4051752280  2.4487385160
Na  2.4051752280  2.4487385160  7.2590889605
Na  2.4051752280  7.2590889605  7.3026522485
Na  4.8321320885  0.0217816440  9.6860458325
Na  4.8321320885  9.6860458325  4.8756953880
Na  7.3026522485  2.4051752280  7.2590889605
Na  4.8756953880  4.8321320885  9.6860458325
Na  4.8756953880  4.8756953880  4.8756953880
Na  7.3026522485  7.3026522485  7.3026522485
16
scale = 1.20000
Na  0.0227286720  0.0227286720  0.0227286720
Na  2.5552054080  7.5747015240  2.5097480640
Na  10.1071782600  5.0422247880  0.0227286720
Na  7.5747015240  7.6201588680  2.5097480640
Na  0.0227286720  10.1071782600  5.0422247880
Na  2.5552054080  2.5552054080  2.5552054080
Na  10.1071782600  5.0876821440  5.0422247880
Na  7.5747015240  2.5097480640  2.5552054080
Na  2.5097480640  2.5552054080  7.5747015240
Na  2.5097480640  7.5747015240  7.6201588680
Na  5.0422247880  0.0227286720  10.1071782600
Na  5.0422247880  10.1071782600  5.0876821440
Na  7.6201588680  2.5097480640  7.5747015240
Na  5.0876821440  5.0422247880  10.1071782600
Na  5.0876821440  5.0876821440  5.0876821440
Na  7.6201588680  7.6201588680  7.6201588680
16
scale = 1.25000
Na  0.0236757000  0.0236757000  0.0236757000
Na  2.6616723000  7.8903140875  2.6143209000
Na  10.5283106875  5.2523174875  0.0236757000
Na  7.8903140875  7.9376654875  2.6143209000
Na  0.0236757000  10.5283106875  5.2523174875
Na  2.6616723000  2.6616723000  2.6616723000
Na  10.5283106875  5.2996689000  5.2523174875
Na  7.8903140875  2.6143209000  2.6616723000
Na  2.6143209000  2.6616723000  7.8903140875
Na  2.6143209000  7.8903140875  7.9376654875
Na  5.2523174875  0.0236757000  10.5283106875
Na  5.2523174875  10.5283106875  5.2996689000
Na  7.9376654875  2.6143209000  7.8903140875
Na  5.2996689000  5.2523174875  10.5283106875
Na  5.2996689000  5.2996689000  5.2996689000
Na  7.9376654875  7.9376654875  7.9376654875
16
scale = 1.30000
Na  0.0246227280  0.0246227280  0.0246227280
Na  2.7681391920  8.2059266510  2.7188937360
Na  10.9494431150  5.4624101870  0.0246227280
Na  8.2059266510  8.2551721070  2.7188937360
Na  0.0246227280  10.9494431150  5.4624101870
Na  2.7681391920  2.7681391920  2.7681391920
Na  10.9494431150  5.5116556560  5.4624101870
Na  8.2059266510  2.7188937360  2.7681391920
Na  2.7188937360  2.7681391920  8.2059266510
Na  2.7188937360  8.2059266510  8.2551721070
Na  5.4624101870  0.0246227280  10.9494431150
Na  5.4624101870  10.9494431150  5.5116556560
Na  8.2551721070  2.7188937360  8.2059266510
Na  5.5116556560  5.4624101870  10.9494431150
Na  5.5116556560  5.5116556560  5.5116556560
Na  8.2551721070  8.2551721070  8.2551721070
16
scale = 1.35000
Na  0.0255697560  0.0255697560  0.0255697560
Na  2.8746060840  8.5215392145  2.8234665720
Na  11.3705755425  5.6725028865  0.0255697560
Na  8.5215392145  8.5726787265  2.8234665720
Na  0.0255697560  11.3705755425  5.6725028865
Na  2.8746060840  2.8746060840  2.8746060840
Na  11.3705755425  5.7236424120  5.6725028865
Na  8.5215392145  2.8234665720  2.8746060840
Na  2.8234665720  2.8746060840  8.5215392145
Na  2.8234665720  8.5215392145  8.5726787265
Na  5.6725028865  0.0255697560  11.3705755425
Na  5.6725028865  11.3705755425  5.7236424120
Na  8.5726787265  2.8234665720  8.5215392145
Na  5.7236424120  5.6725028865  11.3705755425
Na  5.7236424120  5.7236424120  5.7236424120
Na  8.5726787265  8.5726787265  8.5726787265
16
scale = 1.40000
Na  0.0265167840  0.0265167840  0.0265167840
Na  2.9810729760  8.8371517780  2.9280394080
Na  11.7917079700  5.8825955860  0.0265167840
Na  8.8371517780  8.8901853460  2.9280394080
Na  0.0265167840  11.7917079700  5.8825955860
Na  2.9810729760  2.9810729760  2.9810729760
Na  11.7917079700  5.9356291680  5.8825955860
Na  8.8371517780  2.9280394080  2.9810729760
Na  2.9280394080  2.9810729760  8.8371517780
Na  2.9280394080  8.8371517780  8.8901853460
Na  5.8825955860  0.0265167840  11.7917079700
Na  5.8825955860  11.7917079700  5.9356291680
Na  8.8901853460  2.9280394080  8.8371517780
Na  5.9356291680  5.8825955860  11.7917079700
Na  5.9356291680  5.9356291680  5.9356291680
Na  8.8901853460  8.8901853460  8.8901853460
16
scale = 1.45000
Na  0.0274638120  0.0274638120  0.0274638120
Na  3.0875398680  9.1527643415  3.0326122440
Na  12.2128403975  6.0926882855  0.0274638120
Na  9.1527643415  9.2076919655  3.0326122440
Na  0.0274638120  12.2128403975  6.0926882855
Na  3.0875398680  3.0875398680  3.0875398680
Na  12.2128403975  6.1476159240  6.0926882855
Na  9.1527643415  3.0326122440  3.0875398680
Na  3.0326122440  3.0875398680  9.1527643415
Na  3.0326122440  9.1527643415  9.2076919655
Na  6.0926882855  0.0274638120  12.2128403975
Na  6.0926882855  12.2128403975  6.1476159240
Na  9.2076919655  3.0326122440  9.1527643415
Na  6.1476159240  6.0926882855  12.2128403975
Na  6.1476159240  6.1476159240  6.1476159240
Na  9.2076919655  9.2076919655  9.2076919655
16
scale = 1.50000
Na  0.0284108400  0.0284108400  0.0284108400
Na  3.1940067600  9.4683769050  3.1371850800
Na  12.6339728250  6.3027809850  0.0284108400
Na  9.4683769050  9.5251985850  3.1371850800
Na  0.0284108400  12.6339728250  6.3027809850
Na  3.1940067600  3.1940067600  3.1940067600
Na  12.6339728250  6.3596026800  6.3027809850
Na  9.4683769050  3.1371850800  3.1940067600
Na  3.1371850800  3.1940067600  9.4683769050
Na  3.1371850800  9.4683769050  9.5251985850
Na  6.3027809850  0.0284108400  12.6339728250
Na  6.3027809850  12.6339728250  6.3596026800
Na  9.5251985850  3.1371850800  9.4683769050
Na  6.3596026800  6.3027809850  12.6339728250
Na  6.3596026800  6.3596026800  6.3596026800
Na  9.5251985850  9.5251985850  9.5251985850
16
scale = 1.55000
Na  0.0293578680  0.0293578680  0.0293578680
Na  3.3004736520  9.7839894685  3.2417579160
Na  13.0551052525  6.5128736845  0.0293578680
Na  9.7839894685  9.8427052045  3.2417579160
Na  0.0293578680  13.0551052525  6.5128736845
Na  3.3004736520  3.3004736520  3.3004736520
Na  13.0551052525  6.5715894360  6.5128736845
Na  9.7839894685  3.2417579160  3.3004736520
Na  3.2417579160  3.3004736520  9.7839894685
Na  3.2417579160  9.7839894685  9.8427052045
Na  6.5128736845  0.0293578680  13.0551052525
Na  6.5128736845  13.0551052525  6.5715894360
Na  9.8427052045  3.2417579160  9.7839894685
Na  6.5715894360  6.5128736845  13.0551052525
Na  6.5715894360  6.5715894360  6.5715894360
Na  9.8427052045  9.8427052045  9.8427052045
16
scale = 1.60000
Na  0.0303048960  0.0303048960  0.0303048960
Na  3.4069405440  10.0996020320  3.3463307520
Na  13.4762376800  6.7229663840  0.0303048960
Na  10.0996020320  10.1602118240  3.3463307520
Na  0.0303048960  13.4762376800  6.7229663840
Na  3.4069405440  3.4069405440  3.4069405440
Na  13.4762376800  6.7835761920  6.7229663840
Na  10.0996020320  3.3463307520  3.4069405440
Na  3.3463307520  3.4069405440  10.0996020320
Na  3.3463307520  10.0996020320  10.1602118240
Na  6.7229663840  0.0303048960  13.4762376800
Na  6.7229663840  13.4762376800  6.7835761920
Na  10.1602118240  3.3463307520  10.0996020320
Na  6.7835761920  6.7229663840  13.4762376800
Na  6.7835761920  6.7835761920  6.7835761920
Na  10.1602118240  10.1602118240  10.1602118240
16
scale = 1.65000
Na  0.0312519240  0.0312519240  0.0312519240
Na  3.5134074360  10.4152145955  3.4509035880
Na  13.8973701075  6.9330590835  0.0312519240
Na  10.4152145955  10.4777184435  3.4509035880
Na  0.0312519240  13.8973701075  6.9330590835
Na  3.5134074360  3.5134074360  3.5134074360
Na  13.8973701075  6.9955629480  6.9330590835
Na  10.4152145955  3.4509035880  3.5134074360
Na  3.4509035880  3.5134074360  10.4152145955
Na  3.4509035880  10.4152145955  10.4777184435
Na  6.9330590835  0.0312519240  13.8973701075
Na  6.9330590835  13.8973701075  6.9955629480
Na  10.4777184435  3.4509035880  10.4152145955
Na  6.9955629480  6.9330590835  13.8973701075
Na  6.9955629480  6.9955629480  6.9955629480
Na  10.4777184435  10.4777184435  10.4777184435
16
scale = 1.70000
Na  0.0321989520  0.0321989520  0.0321989520
Na  3.6198743280  10.7308271590  3.5554764240
Na  14.3185025350  7.1431517830  0.0321989520
Na  10.7308271590  10.7952250630  3.5554764240
Na  0.0321989520  14.3185025350  7.1431517830
Na  3.6198743280  3.6198743280  3.6198743280
Na  14.3185025350  7.2075497040  7.1431517830
Na  10.7308271590  3.5554764240  3.6198743280
Na  3.5554764240  3.6198743280  10.7308271590
Na  3.5554764240  10.7308271590  10.7952250630
Na  7.1431517830  0.0321989520  14.3185025350
Na  7.1431517830  14.3185025350  7.2075497040
Na  10.7952250630  3.5554764240  10.7308271590
Na  7.2075497040  7.1431517830  14.3185025350
Na  7.2075497040  7.2075497040  7.2075497040
Na  10.7952250630  10.7952250630  10.7952250630
16
scale = 1.75000
Na  0.0331459800  0.0331459800  0.0331459800
Na  3.7263412200  11.0464397225  3.6600492600
Na  14.7396349625  7.3532444825  0.0331459800
Na  11.0464397225  11.1127316825  3.6600492600
Na  0.0331459800  14.7396349625  7.3532444825
Na  3.7263412200  3.7263412200  3.7263412200
Na  14.7396349625  7.4195364600  7.3532444825
Na  11.0464397225  3.6600492600  3.7263412200
Na  3.6600492600  3.7263412200  11.0464397225
Na  3.6600492600  11.0464397225  11.1127316825
Na  7.3532444825  0.0331459800  14.7396349625
Na  7.3532444825  14.7396349625  7.4195364600
Na  11.1127316825  3.6600492600  11.0464397225
Na  7.4195364600  7.3532444825  14.7396349625
Na  7.4195364600  7.4195364600  7.4195364600
Na  11.1127316825  11.1127316825  11.1127316825
16
scale = 1.80000
Na  0.0340930080  0.0340930080  0.0340930080
Na  3.8328081120  11.3620522860  3.7646220960
Na  15.1607673900  7.5633371820  0.0340930080
Na  11.3620522860  11.4302383020  3.7646220960
Na  0.0340930080  15.1607673900  7.5633371820
Na  3.8328081120  3.8328081120  3.8328081120
Na  15.1607673900  7.6315232160  7.5633371820
Na  11.3620522860  3.7646220960  3.8328081120
Na  3.7646220960  3.8328081120  11.3620522860
Na  3.7646220960  11.3620522860  11.4302383020
Na  7.5633371820  0.0340930080  15.1607673900
Na  7.5633371820  15.1607673900  7.6315232160
Na  11.4302383020  3.7646220960  11.3620522860
Na  7.6315232160  7.5633371820  15.1607673900
Na  7.6315232160  7.6315232160  7.6315232160
Na  11.4302383020  11.4302383020  11.4302383020
16
scale = 1.85000
Na  0.0350400360  0.0350400360  0.0350400360
Na  3.9392750040  11.6776648495  3.8691949320
Na  15.5818998175  7.7734298815  0.0350400360
Na  11.6776648495  11.7477449215  3.8691949320
Na  0.0350400360  15.5818998175  7.7734298815
Na  3.9392750040  3.9392750040  3.9392750040
Na  15.5818998175  7.8435099720  7.7734298815
Na  11.6776648495  3.8691949320  3.9392750040
Na  3.8691949320  3.9392750040  11.6776648495
Na  3.8691949320  11.6776648495  11.7477449215
Na  7.7734298815  0.0350400360  15.5818998175
Na  7.7734298815  15.5818998175  7.8435099720
Na  11.7477449215  3.8691949320  11.6776648495
Na  7.8435099720  7.7734298815  15.5818998175
Na  7.8435099720  7.8435099720  7.8435099720
Na  11.7477449215  11.7477449215  11.7477449215
16
scale = 1.90000
Na  0.0359870640  0.0359870640  0.0359870640
Na  4.0457418960  11.9932774130  3.9737677680
Na  16.0030322450  7.9835225810  0.0359870640
Na  11.9932774130  12.0652515410  3.9737677680
Na  0.0359870640  16.0030322450  7.9835225810
Na  4.0457418960  4.0457418960  4.0457418960
Na  16.0030322450  8.0554967280  7.9835225810
Na  11.9932774130  3.9737677680  4.0457418960
Na  3.9737677680  4.0457418960  11.9932774130
Na  3.9737677680  11.9932774130  12.0652515410
Na  7.9835225810  0.0359870640  16.0030322450
Na  7.9835225810  16.0030322450  8.0554967280
Na  12.0652515410  3.9737677680  11.9932774130
Na  8.0554967280  7.9835225810  16.0030322450
Na  8.0554967280  8.0554967280  8.0554967280
Na  12.0652515410  12.0652515410  12.0652515410
16
scale = 1.95000
Na  0.0369340920  0.0369340920  0.0369340920
Na  4.1522087880  12.3088899765  4.0783406040
Na  16.4241646725  8.1936152805  0.0369340920
Na  12.3088899765  12.3827581605  4.0783406040
Na  0.0369340920  16.4241646725  8.1936152805
Na  4.1522087880  4.1522087880  4.1522087880
Na  16.4241646725  8.2674834840  8.1936152805
Na  12.3088899765  4.0783406040  4.1522087880
Na  4.0783406040  4.1522087880  12.3088899765
Na  4.0783406040  12.3088899765  12.3827581605
Na  8.1936152805  0.0369340920  16.4241646725
Na  8.1936152805  16.4241646725  8.2674834840
Na  12.3827581605  4.0783406040  12.3088899765
Na  8.2674834840  8.1936152805  16.4241646725
Na  8.2674834840  8.2674834840  8.2674834840
Na  12.3827581605  12.3827581605  12.3827581605
16
scale = 2.00000
Na  0.0378811200  0.0378811200  0.0378811200
Na  4.2586756800  12.6245025400  4.1829134400
Na  16.8452971000  8.4037079800  0.0378811200
Na  12.6245025400  12.7002647800  4.1829134400
Na  0.0378811200  16.8452971000  8.4037079800
Na  4.2586756800  4.2586756800  4.2586756800
Na  16.8452971000  8.4794702400  8.4037079800
Na  12.6245025400  4.1829134400  4.2586756800
Na  4.1829134400  4.2586756800  12.6245025400
Na  4.1829134400  12.6245025400  12.7002647800
Na  8.4037079800  0.0378811200  16.8452971000
Na  8.4037079800  16.8452971000  8.4794702400
Na  12.7002647800  4.1829134400  12.6245025400
Na  8.4794702400  8.4037079800  16.8452971000
Na  8.4794702400  8.4794702400  8.4794702400
Na  12.7002647800  12.7002647800  12.7002647800
16
scale = 2.05000
Na  0.0388281480  0.0388281480  0.0388281480
Na  4.3651425720  12.9401151035  4.2874862760
Na  17.2664295275  8.6138006795  0.0388281480
Na  12.9401151035  13.0177713995  4.2874862760
Na  0.0388281480  17.2664295275  8.6138006795
Na  4.3651425720  4.3651425720  4.3651425720
Na  17.2664295275  8.6914569960  8.6138006795
Na  12.9401151035  4.2874862760  4.3651425720
Na  4.2874862760  4.3651425720  12.9401151035
Na  4.2874862760  12.9401151035  13.0177713995
Na  8.6138006795  0.0388281480  17.2664295275
Na  8.6138006795  17.2664295275  8.6914569960
Na  13.0177713995  4.2874862760  12.9401151035
Na  8.6914569960  8.6138006795  17.2664295275
Na  8.6914569960  8.6914569960  8.6914569960
Na  13.0177713995  13.0177713995  13.0177713995
16
scale = 2.10000
Na  0.0397751760  0.0397751760  0.0397751760
Na  4.4716094640  13.2557276670  4.3920591120
Na  17.6875619550  8.8238933790  0.0397751760
Na  13.2557276670  13.3352780190  4.3920591120
Na  0.0397751760  17.6875619550  8.8238933790
Na  4.4716094640  4.4716094640  4.4716094640
Na  17.6875619550  8.9034437520  8.8238933790
Na  13.2557276670  4.3920591120  4.4716094640
Na  4.3920591120  4.4716094640  13.2557276670
Na  4.3920591120  13.2557276670  13.3352780190
Na  8.8238933790  0.0397751760  17.6875619550
Na  8.8238933790  17.6875619550  8.9034437520
Na  13.3352780190  4.3920591120  13.2557276670
Na  8.9034437520  8.8238933790  17.6875619550
Na  8.9034437520  8.9034437520  8.9034437520
Na  13.3352780190  13.3352780190  13.3352780190
16
scale = 2.15000
Na  0.0407222040  0.0407222040  0.0407222040
Na  4.5780763560  13.5713402305  4.4966319480
Na  18.1086943825  9.0339860785  0.0407222040
Na  13.5713402305  13.6527846385  4.4966319480
Na  0.0407222040  18.1086943825  9.0339860785
Na  4.5780763560  4.5780763560  4.5780763560
Na  18.1086943825  9.1154305080  9.0339860785
Na  13.5713402305  4.4966319480  4.5780763560
Na  4.4966319480  4.5780763560  13.5713402305
Na  4.4966319480  13.5713402305  13.6527846385
Na  9.0339860785  0.0407222040  18.1086943825
Na  9.0339860785  18.1086943825  9.1154305080
Na  13.6527846385  4.4966319480  13.5713402305
Na  9.1154305080  9.0339860785  18.1086943825
Na  9.1154305080  9.1154305080  9.1154305080
Na  13.6527846385  13.6527846385  13.6527846385
16
scale = 2.20000
Na  0.0416692320  0.0416692320  0.0416692320
Na  4.6845432480  13.8869527940  4.6012047840
Na  18.5298268100  9.2440787780  0.0416692320
Na  13.8869527940  13.9702912580  4.6012047840
Na  0.0416692320  18.5298268100  9.2440787780
Na  4.6845432480  4.6845432480  4.6845432480
Na  18.5298268100  9.3274172640  9.2440787780
Na  13.8869527940  4.6012047840  4.6845432480
Na  4.6012047840  4.6845432480  13.8869527940
Na  4.6012047840  13.8869527940  13.9702912580
Na  9.2440787780  0.0416692320  18.5298268100
Na  9.2440787780  18.5298268100  9.3274172640
Na  13.9702912580  4.6012047840  13.8869527940
Na  9.3274172640  9.2440787780  18.5298268100
Na  9.3274172640  9.3274172640  9.3274172640
Na  13.9702912580  13.9702912580  13.9702912580
16
scale = 2.25000
Na  0.0426162600  0.0426162600  0.0426162600
Na  4.7910101400  14.2025653575  4.7057776200
Na  18.9509592375  9.4541714775  0.0426162600
Na  14.2025653575  14.2877978775  4.7057776200
Na  0.0426162600  18.9509592375  9.4541714775
Na  4.7910101400  4.7910101400  4.7910101400
Na  18.9509592375  9.5394040200  9.4541714775
Na  14.2025653575  4.7057776200  4.7910101400
Na  4.7057776200  4.7910101400  14.2025653575
Na  4.7057776200  14.2025653575  14.2877978775
Na  9.4541714775  0.0426162600  18.9509592375
Na  9.4541714775  18.9509592375  9.5394040200
Na  14.2877978775  4.7057776200  14.2025653575
Na  9.5394040200  9.4541714775  18.9509592375
Na  9.5394040200  9.5394040200  9.5394040200
Na  14.2877978775  14.2877978775  14.2877978775
16
scale = 2.30000
Na  0.0435632880  0.0435632880  0.0435632880
Na  4.8974770320  14.5181779210  4.8103504560
Na  19.3720916650  9.6642641770  0.0435632880
Na  14.5181779210  14.6053044970  4.8103504560
Na  0.0435632880  19.3720916650  9.6642641770
Na  4.8974770320  4.8974770320  4.8974770320
Na  19.3720916650  9.7513907760  9.6642641770
Na  14.5181779210  4.8103504560  4.8974770320
Na  4.8103504560  4.8974770320  14.5181779210
Na  4.8103504560  14.5181779210  14.6053044970
Na  9.6642641770  0.0435632880  19.3720916650
Na  9.6642641770  19.3720916650  9.7513907760
Na  14.6053044970  4.8103504560  14.5181779210
Na  9.7513907760  9.6642641770  19.3720916650
Na  9.7513907760  9.7513907760  9.7513907760
Na  14.6053044970  14.6053044970  14.6053044970
16
scale = 2.35000
Na  0.0445103160  0.0445103160  0.0445103160
Na  5.0039439240  14.8337904845  4.9149232920
Na  19.7932240925  9.8743568765  0.0445103160
Na  14.8337904845  14.9228111165  4.9149232920
Na  0.0445103160  19.7932240925  9.8743568765
Na  5.0039439240  5.0039439240  5.0039439240
Na  19.7932240925  9.9633775320  9.8743568765
Na  14.8337904845  4.9149232920  5.0039439240
Na  4.9149232920  5.0039439240  14.8337904845
Na  4.9149232920  14.8337904845  14.9228111165
Na  9.8743568765  0.0445103160  19.7932240925
Na  9.8743568765  19.7932240925  9.9633775320
Na  14.9228111165  4.9149232920  14.8337904845
Na  9.9633775320  9.8743568765  19.7932240925
Na  9.9633775320  9.9633775320  9.9633775320
Na  14.9228111165  14.9228111165  14.9228111165
16
scale = 2.40000
Na  0.0454573440  0.0454573440  0.0454573440
Na  5.1104108160  15.1494030480  5.0194961280
Na  20.2143565200  10.0844495760  0.0454573440
Na  15.1494030480  15.2403177360  5.0194961280
Na  0.0454573440  20.2143565200  10.0844495760
Na  5.1104108160  5.1104108160  5.1104108160
Na  20.2143565200  10.1753642880  10.0844495760
Na  15.1494030480  5.0194961280  5.1104108160
Na  5.0194961280  5.1104108160  15.1494030480
Na  5.0194961280  15.1494030480  15.2403177360
Na  10.0844495760  0.0454573440  20.2143565200
Na  10.0844495760  20.2143565200  10.1753642880
Na  15.2403177360  5.0194961280  15.1494030480
Na  10.1753642880  10.0844495760  20.2143565200
Na  10.1753642880  10.1753642880  10.1753642880
Na  15.2403177360  15.2403177360  15.2403177360
16
scale = 2.45000
Na  0.0464043720  0.0464043720  0.0464043720
Na  5.2168777080  15.4650156115  5.1240689640
Na  20.6354889475  10.2945422755  0.0464043720
Na  15.4650156115  15.5578243555  5.1240689640
Na  0.0464043720  20.6354889475  10.2945422755
Na  5.2168777080  5.2168777080  5.2168777080
Na  20.6354889475  10.3873510440  10.2945422755
Na  15.4650156115  5.1240689640  5.2168777080
Na  5.1240689640  5.2168777080  15.4650156115
Na  5.1240689640  15.4650156115  15.5578243555
Na  10.2945422755  0.0464043720  20.6354889475
Na  10.2945422755  20.6354889475  10.3873510440
Na  15.5578243555  5.1240689640  15.4650156115
Na  10.3873510440  10.2945422755  20.6354889475
Na  10.3873510440  10.3873510440  10.3873510440
Na  15.5578243555  15.5578243555  15.5578243555
16
scale = 2.50000
Na  0.0473514000  0.0473514000  0.0473514000
Na  5.3233446000  15.7806281750  5.2286418000
Na  21.0566213750  10.5046349750  0.0473514000
Na  15.7806281750  15.8753309750  5.2286418000
Na  0.0473514000  21.0566213750  10.5046349750
Na  5.3233446000  5.3233446000  5.3233446000
Na  21.0566213750  10.5993378000  10.5046349750
Na  15.7806281750  5.2286418000  5.3233446000
Na  5.2286418000  5.3233446000  15.7806281750
Na  5.2286418000  15.7806281750  15.8753309750
Na  10.5046349750  0.0473514000  21.0566213750
Na  10.5046349750  21.0566213750  10.5993378000
Na  15.8753309750  5.2286418000  15.7806281750
Na  10.5993378000  10.5046349750  21.0566213750
Na  10.5993378000  10.5993378000  10.5993378000
Na  15.8753309750  15.8753309750  15.8753309750
16
scale = 2.55000
Na  0.0482984280  0.0482984280  0.0482984280
Na  5.4298114920  16.0962407385  5.3332146360
Na  21.4777538025  10.7147276745  0.0482984280
Na  16.0962407385  16.1928375945  5.3332146360
Na  0.0482984280  21.4777538025  10.7147276745
Na  5.4298114920  5.4298114920  5.4298114920
Na  21.4777538025  10.8113245560  10.7147276745
Na  16.0962407385  5.3332146360  5.4298114920
Na  5.3332146360  5.4298114920  16.0962407385
Na  5.3332146360  16.0962407385  16.1928375945
Na  10.7147276745  0.0482984280  21.4777538025
Na  10.7147276745  21.4777538025  10.8113245560
Na  16.1928375945  5.3332146360  16.0962407385
Na  10.8113245560  10.7147276745  21.4777538025
Na  10.8113245560  10.8113245560  10.8113245560
Na  16.1928375945  16.1928375945  16.1928375945
16
scale = 2.60000
Na  0.0492454560  0.0492454560  0.0492454560
Na  5.5362783840  16.4118533020  5.4377874720
Na  21.8988862300  10.9248203740  0.0492454560
Na  16.4118533020  16.5103442140  5.4377874720
Na  0.0492454560  21.8988862300  10.9248203740
Na  5.5362783840  5.5362783840  5.5362783840
Na  21.8988862300  11.0233113120  10.9248203740
Na  16.4118533020  5.4377874720  5.5362783840
Na  5.4377874720  5.5362783840  16.4118533020
Na  5.4377874720  16.4118533020  16.5103442140
Na  10.9248203740  0.0492454560  21.8988862300
Na  10.9248203740  21.8988862300  11.0233113120
Na  16.5103442140  5.4377874720  16.4118533020
Na  11.0233113120  10.9248203740  21.8988862300
Na  11.0233113120  11.0233113120  11.0233113120
Na  16.5103442140  16.5103442140  16.5103442140
16
scale = 2.65000
Na  0.0501924840  0.0501924840  0.0501924840
Na  5.6427452760  16.7274658655  5.5423603080
Na  22.3200186575  11.1349130735  0.0501924840
Na  16.7274658655  16.8278508335  5.5423603080
Na  0.0501924840  22.3200186575  11.1349130735
Na  5.6427452760  5.6427452760  5.6427452760
Na  22.3200186575  11.2352980680  11.1349130735
Na  16.7274658655  5.5423603080  5.6427452760
Na  5.5423603080  5.6427452760  16.7274658655
Na  5.5423603080  16.7274658655  16.8278508335
Na  11.1349130735  0.0501924840  22.3200186575
Na  11.1349130735  22.3200186575  11.2352980680
Na  16.8278508335  5.5423603080  16.7274658655
Na  11.2352980680  11.1349130735  22.3200186575
Na  11.2352980680  11.2352980680  11.2352980680
Na  16.8278508335  16.8278508335  16.8278508335
16
scale = 2.70000
Na  0.0511395120  0.0511395120  0.0511395120
Na  5.7492121680  17.0430784290  5.6469331440
Na  22.7411510850  11.3450057730  0.0511395120
Na  17.0430784290  17.1453574530  5.6469331440
Na  0.0511395120  22.7411510850  11.3450057730
Na  5.7492121680  5.7492121680  5.7492121680
Na  22.7411510850  11.4472848240  11.3450057730
Na  17.0430784290  5.6469331440  5.7492121680
Na  5.6469331440  5.7492121680  17.0430784290
Na  5.6469331440  17.0430784290  17.1453574530
Na  11.3450057730  0.0511395120  22.7411510850
Na  11.3450057730  22.7411510850  11.4472848240
Na  17.1453574530  5.6469331440  17.0430784290
Na  11.4472848240  11.3450057730  22.7411510850
Na  11.4472848240  11.4472848240  11.4472848240
Na  17.1453574530  17.1453574530  17.1453574530
16
scale = 2.75000
Na  0.0520865400  0.0520865400  0.0520865400
Na  5.8556790600  17.3586909925  5.7515059800
Na  23.1622835125  11.5550984725  0.0520865400
Na  17.3586909925  17.4628640725  5.7515059800
Na  0.0520865400  23.1622835125  11.5550984725
Na  5.8556790600  5.8556790600  5.8556790600
Na  23.1622835125  11.6592715800  11.5550984725
Na  17.3586909925  5.7515059800  5.8556790600
Na  5.7515059800  5.8556790600  17.3586909925
Na  5.7515059800  17.3586909925  17.4628640725
Na  11.5550984725  0.0520865400  23.1622835125
Na  11.5550984725  23.1622835125  11.6592715800
Na  17.4628640725  5.7515059800  17.3586909925
Na  11.6592715800  11.5550984725  23.1622835125
Na  11.6592715800  11.6592715800  11.6592715800
Na  17.4628640725  17.4628640725  17.4628640725
16
scale = 2.80000
Na  0.0530335680  0.0530335680  0.0530335680
Na  5.9621459520  17.6743035560  5.8560788160
Na  23.5834159400  11.7651911720  0.0530335680
Na  17.6743035560  17.7803706920  5.8560788160
Na  0.0530335680  23.5834159400  11.7651911720
Na  5.9621459520  5.9621459520  5.9621459520
Na  23.5834159400  11.8712583360  11.7651911720
Na  17.6743035560  5.8560788160  5.9621459520
Na  5.8560788160  5.9621459520  17.6743035560
Na  5.8560788160  17.6743035560  17.7803706920
Na  11.7651911720  0.0530335680  23.5834159400
Na  11.7651911720  23.5834159400  11.8712583360
Na  17.7803706920  5.8560788160  17.6743035560
Na  11.8712583360  11.7651911720  23.5834159400
Na  11.8712583360  11.8712583360  11.8712583360
Na  17.7803706920  17.7803706920  17.7803706920
16
scale = 2.85000
Na  0.0539805960  0.0539805960  0.0539805960
Na  6.0686128440  17.9899161195  5.9606516520
Na  24.0045483675  11.9752838715  0.0539805960
Na  17.9899161195  18.0978773115  5.9606516520
Na  0.0539805960  24.0045483675  11.9752838715
Na  6.0686128440  6.0686128440  6.0686128440
Na  24.0045483675  12.0832450920  11.9752838715
Na  17.9899161195  5.9606516520  6.0686128440
Na  5.9606516520  6.0686128440  17.9899161195
Na  5.9606516520  17.9899161195  18.0978773115
Na  11.9752838715  0.0539805960  24.0045483675
Na  11.9752838715  24.0045483675  12.0832450920
Na  18.0978773115  5.9606516520  17.9899161195
Na  12.0832450920  11.9752838715  24.0045483675
Na  12.0832450920  12.0832450920  12.0832450920
Na  18.0978773115  18.0978773115  18.0978773115
16
scale = 2.90000
Na  0.0549276240  0.0549276240  0.0549276240
Na  6.1750797360  18.3055286830  6.0652244880
Na  24.4256807950  12.1853765710  0.0549276240
Na  18.3055286830  18.4153839310  6.0652244880
Na  0.0549276240  24.4256807950  12.1853765710
Na  6.1750797360  6.1750797360  6.1750797360
Na  24.4256807950  12.2952318480  12.1853765710
Na  18.3055286830  6.0652244880  6.1750797360
Na  6.0652244880  6.1750797360  18.3055286830
Na  6.0652244880  18.3055286830  18.4153839310
Na  12.1853765710  0.0549276240  24.4256807950
Na  12.1853765710  24.4256807950  12.2952318480
Na  18.4153839310  6.0652244880  18.3055286830
Na  12.2952318480  12.1853765710  24.4256807950
Na  12.2952318480  12.2952318480  12.2952318480
Na  18.4153839310  18.4153839310  18.4153839310
16
scale = 2.95000
Na  0.0558746520  0.0558746520  0.0558746520
Na  6.2815466280  18.6211412465  6.1697973240
Na  24.8468132225  12.3954692705  0.0558746520
Na  18.6211412465  18.7328905505  6.1697973240
Na  0.0558746520  24.8468132225  12.3954692705
Na  6.2815466280  6.2815466280  6.2815466280
Na  24.8468132225  12.5072186040  12.3954692705
Na  18.6211412465  6.1697973240  6.2815466280
Na  6.1697973240  6.2815466280  18.6211412465
Na  6.1697973240  18.6211412465  18.7328905505
Na  12.3954692705  0.0558746520  24.8468132225
Na  12.3954692705  24.8468132225  12.5072186040
Na  18.7328905505  6.1697973240  18.6211412465
Na  12.5072186040  12.3954692705  24.8468132225
Na  12.5072186040  12.5072186040  12.5072186040
Na  18.7328905505  18.7328905505  18.7328905505
