4
scale = 0.75000
K   1.4839269150  1.0492947825  2.5702368075
K   4.4517807375  3.1478843475  7.7107104225
K   2.9678538225  2.0985895650  5.1404736150
Li  0.0000000000  0.0000000000  0.0000000000
4
scale = 0.80000
K   1.5828553760  1.1192477680  2.7415859280
K   4.7485661200  3.3577433040  8.2247577840
K   3.1657107440  2.2384955360  5.4831718560
Li  0.0000000000  0.0000000000  0.0000000000
4
scale = 0.85000
K   1.6817838370  1.1892007535  2.9129350485
K   5.0453515025  3.5676022605  8.7388051455
K   3.3635676655  2.3784015070  5.8258700970
Li  0.0000000000  0.0000000000  0.0000000000
4
scale = 0.90000
K   1.7807122980  1.2591537390  3.0842841690
K   5.3421368850  3.7774612170  9.2528525070
K   3.5614245870  2.5183074780  6.1685683380
Li  0.0000000000  0.0000000000  0.0000000000
4
scale = 0.95000
K   1.8796407590  1.3291067245  3.2556332895
K   5.6389222675  3.9873201735  9.7668998685
K   3.7592815085  2.6582134490  6.5112665790
Li  0.0000000000  0.0000000000  0.0000000000
4
scale = 1.00000
K   1.9785692200  1.3990597100  3.4269824100
K   5.9357076500  4.1971791300  10.2809472300
K   3.9571384300  2.7981194200  6.8539648200
Li  0.0000000000  0.0000000000  0.0000000000
4
scale = 1.05000
K   2.0774976810  1.4690126955  3.5983315305
K   6.2324930325  4.4070380865  10.7949945915
K   4.1549953515  2.9380253910  7.1966630610
Li  0.0000000000  0.0000000000  0.0000000000
4
scale = 1.10000
K   2.1764261420  1.5389656810  3.7696806510
K   6.5292784150  4.6168970430  11.3090419530
K   4.3528522730  3.0779313620  7.5393613020
Li  0.0000000000  0.0000000000  0.0000000000
4
scale = 1.15000
K   2.2753546030  1.6089186665  3.9410297715
K   6.8260637975  4.8267559995  11.8230893145
K   4.5507091945  3.2178373330  7.8820595430
Li  0.0000000000  0.0000000000  0.0000000000
4
scale = 1.20000
K   2.3742830640  1.6788716520  4.1123788920
K   7.1228491800  5.0366149560  12.3371366760
K   4.7485661160  3.3577433040  8.2247577840
Li  0.0000000000  0.0000000000  0.0000000000
4
scale = 1.25000
K   2.4732115250  1.7488246375  4.2837280125
K   7.4196345625  5.2464739125  12.8511840375
K   4.9464230375  3.4976492750  8.5674560250
Li  0.0000000000  0.0000000000  0.0000000000
4
scale = 1.30000
K   2.5721399860  1.8187776230  4.4550771330
K   7.7164199450  5.4563328690  13.3652313990
K   5.1442799590  3.6375552460  8.9101542660
Li  0.0000000000  0.0000000000  0.0000000000
4
scale = 1.35000
K   2.6710684470  1.8887306085  4.6264262535
K   8.0132053275  5.6661918255  13.8792787605
K   5.3421368805  3.7774612170  9.2528525070
Li  0.0000000000  0.0000000000  0.0000000000
4
scale = 1.40000
K   2.7699969080  1.9586835940  4.7977753740
K   8.3099907100  5.8760507820  14.3933261220
K   5.5399938020  3.9173671880  9.5955507480
Li  0.0000000000  0.0000000000  0.0000000000
4
scale = 1.45000
K   2.8689253690  2.0286365795  4.9691244945
K   8.6067760925  6.0859097385  14.9073734835
K   5.7378507235  4.0572731590  9.9382489890
Li  0.0000000000  0.0000000000  0.0000000000
4
scale = 1.50000
K   2.9678538300  2.0985895650  5.1404736150
K   8.9035614750  6.2957686950  15.4214208450
K   5.9357076450  4.1971791300  10.2809472300
Li  0.0000000000  0.0000000000  0.0000000000
4
scale = 1.55000
K   3.0667822910  2.1685425505  5.3118227355
K   9.2003468575  6.5056276515  15.9354682065
K   6.1335645665  4.3370851010  10.6236454710
Li  0.0000000000  0.0000000000  0.0000000000
4
scale = 1.60000
K   3.1657107520  2.2384955360  5.4831718560
K   9.4971322400  6.7154866080  16.4495155680
K   6.3314214880  4.4769910720  10.9663437120
Li  0.0000000000  0.0000000000  0.0000000000
4
scale = 1.65000
K   3.2646392130  2.3084485215  5.6545209765
K   9.7939176225  6.9253455645  16.9635629295
K   6.5292784095  4.6168970430  11.3090419530
Li  0.0000000000  0.0000000000  0.0000000000
4
scale = 1.70000
K   3.3635676740  2.3784015070  5.8258700970
K   10.0907030050  7.1352045210  17.4776102910
K   6.7271353310  4.7568030140  11.6517401940
Li  0.0000000000  0.0000000000  0.0000000000
4
scale = 1.75000
K   3.4624961350  2.4483544925  5.9972192175
K   10.3874883875  7.3450634775  17.9916576525
K   6.9249922525  4.8967089850  11.9944384350
Li  0.0000000000  0.0000000000  0.0000000000
4
scale = 1.80000
K   3.5614245960  2.5183074780  6.1685683380
K   10.6842737700  7.5549224340  18.5057050140
K   7.1228491740  5.0366149560  12.3371366760
Li  0.0000000000  0.0000000000  0.0000000000
4
scale = 1.85000
K   3.6603530570  2.5882604635  6.3399174585
K   10.9810591525  7.7647813905  19.0197523755
K   7.3207060955  5.1765209270  12.6798349170
Li  0.0000000000  0.0000000000  0.0000000000
4
scale = 1.90000
K   3.7592815180  2.6582134490  6.5112665790
K   11.2778445350  7.9746403470  19.5337997370
K   7.5185630170  5.3164268980  13.0225331580
Li  0.0000000000  0.0000000000  0.0000000000
4
scale = 1.95000
K   3.8582099790  2.7281664345  6.6826156995
K   11.5746299175  8.1844993035  20.0478470985
K   7.7164199385  5.4563328690  13.3652313990
Li  0.0000000000  0.0000000000  0.0000000000
4
scale = 2.00000
K   3.9571384400  2.7981194200  6.8539648200
K   11.8714153000  8.3943582600  20.5618944600
K   7.9142768600  5.5962388400  13.7079296400
Li  0.0000000000  0.0000000000  0.0000000000
4
scale = 2.05000
K   4.0560669010  2.8680724055  7.0253139405
K   12.1682006825  8.6042172165  21.0759418215
K   8.1121337815  5.7361448110  14.0506278810
Li  0.0000000000  0.0000000000  0.0000000000
4
scale = 2.10000
K   4.1549953620  2.9380253910  7.1966630610
K   12.4649860650  8.8140761730  21.5899891830
K   8.3099907030  5.8760507820  14.3933261220
Li  0.0000000000  0.0000000000  0.0000000000
4
scale = 2.15000
K   4.2539238230  3.0079783765  7.3680121815
K   12.7617714475  9.0239351295  22.1040365445
K   8.5078476245  6.0159567530  14.7360243630
Li  0.0000000000  0.0000000000  0.0000000000
4
scale = 2.20000
K   4.3528522840  3.0779313620  7.5393613020
K   13.0585568300  9.2337940860  22.6180839060
K   8.7057045460  6.1558627240  15.0787226040
Li  0.0000000000  0.0000000000  0.0000000000
4
scale = 2.25000
K   4.4517807450  3.1478843475  7.7107104225
K   13.3553422125  9.4436530425  23.1321312675
K   8.9035614675  6.2957686950  15.4214208450
Li  0.0000000000  0.0000000000  0.0000000000
4
scale = 2.30000
K   4.5507092060  3.2178373330  7.8820595430
K   13.6521275950  9.6535119990  23.6461786290
K   9.1014183890  6.4356746660  15.7641190860
Li  0.0000000000  0.0000000000  0.0000000000
4
scale = 2.35000
K   4.6496376670  3.2877903185  8.0534086635
K   13.9489129775  9.8633709555  24.1602259905
K   9.2992753105  6.5755806370  16.1068173270
Li  0.0000000000  0.0000000000  0.0000000000
4
scale = 2.40000
K   4.7485661280  3.3577433040  8.2247577840
K   14.2456983600  10.0732299120  24.6742733520
K   9.4971322320  6.7154866080  16.4495155680
Li  0.0000000000  0.0000000000  0.0000000000
4
scale = 2.45000
K   4.8474945890  3.4276962895  8.3961069045
K   14.5424837425  10.2830888685  25.1883207135
K   9.6949891535  6.8553925790  16.7922138090
Li  0.0000000000  0.0000000000  0.0000000000
