4
scale = 0.75000
K   2.9399102250  1.0276661925  -1.0032042150
K   0.4407831000  3.0829985700  -1.0032042150
K   1.6903466625  2.0553323775  -3.8471595150
Li  0.0000000000  0.0000000000  0.0000000000
4
scale = 0.80000
K   3.1359042400  1.0961772720  -1.0700844960
K   0.4701686400  3.2885318080  -1.0700844960
K   1.8030364400  2.1923545360  -4.1036368160
Li  0.0000000000  0.0000000000  0.0000000000
4
scale = 0.85000
K   3.3318982550  1.1646883515  -1.1369647770
K   0.4995541800  3.4940650460  -1.1369647770
K   1.9157262175  2.3293766945  -4.3601141170
Li  0.0000000000  0.0000000000  0.0000000000
4
scale = 0.90000
K   3.5278922700  1.2331994310  -1.2038450580
K   0.5289397200  3.6995982840  -1.2038450580
K   2.0284159950  2.4663988530  -4.6165914180
Li  0.0000000000  0.0000000000  0.0000000000
4
scale = 0.95000
K   3.7238862850  1.3017105105  -1.2707253390
K   0.5583252600  3.9051315220  -1.2707253390
K   2.1411057725  2.6034210115  -4.8730687190
Li  0.0000000000  0.0000000000  0.0000000000
4
scale = 1.00000
K   3.9198803000  1.3702215900  -1.3376056200
K   0.5877108000  4.1106647600  -1.3376056200
K   2.2537955500  2.7404431700  -5.1295460200
Li  0.0000000000  0.0000000000  0.0000000000
4
scale = 1.05000
K   4.1158743150  1.4387326695  -1.4044859010
K   0.6170963400  4.3161979980  -1.4044859010
K   2.3664853275  2.8774653285  -5.3860233210
Li  0.0000000000  0.0000000000  0.0000000000
4
scale = 1.10000
K   4.3118683300  1.5072437490  -1.4713661820
K   0.6464818800  4.5217312360  -1.4713661820
K   2.4791751050  3.0144874870  -5.6425006220
Li  0.0000000000  0.0000000000  0.0000000000
4
scale = 1.15000
K   4.5078623450  1.5757548285  -1.5382464630
K   0.6758674200  4.7272644740  -1.5382464630
K   2.5918648825  3.1515096455  -5.8989779230
Li  0.0000000000  0.0000000000  0.0000000000
4
scale = 1.20000
K   4.7038563600  1.6442659080  -1.6051267440
K   0.7052529600  4.9327977120  -1.6051267440
K   2.7045546600  3.2885318040  -6.1554552240
Li  0.0000000000  0.0000000000  0.0000000000
4
scale = 1.25000
K   4.8998503750  1.7127769875  -1.6720070250
K   0.7346385000  5.1383309500  -1.6720070250
K   2.8172444375  3.4255539625  -6.4119325250
Li  0.0000000000  0.0000000000  0.0000000000
4
scale = 1.30000
K   5.0958443900  1.7812880670  -1.7388873060
K   0.7640240400  5.3438641880  -1.7388873060
K   2.9299342150  3.5625761210  -6.6684098260
Li  0.0000000000  0.0000000000  0.0000000000
4
scale = 1.35000
K   5.2918384050  1.8497991465  -1.8057675870
K   0.7934095800  5.5493974260  -1.8057675870
K   3.0426239925  3.6995982795  -6.9248871270
Li  0.0000000000  0.0000000000  0.0000000000
4
scale = 1.40000
K   5.4878324200  1.9183102260  -1.8726478680
K   0.8227951200  5.7549306640  -1.8726478680
K   3.1553137700  3.8366204380  -7.1813644280
Li  0.0000000000  0.0000000000  0.0000000000
4
scale = 1.45000
K   5.6838264350  1.9868213055  -1.9395281490
K   0.8521806600  5.9604639020  -1.9395281490
K   3.2680035475  3.9736425965  -7.4378417290
Li  0.0000000000  0.0000000000  0.0000000000
4
scale = 1.50000
K   5.8798204500  2.0553323850  -2.0064084300
K   0.8815662000  6.1659971400  -2.0064084300
K   3.3806933250  4.1106647550  -7.6943190300
Li  0.0000000000  0.0000000000  0.0000000000
4
scale = 1.55000
K   6.0758144650  2.1238434645  -2.0732887110
K   0.9109517400  6.3715303780  -2.0732887110
K   3.4933831025  4.2476869135  -7.9507963310
Li  0.0000000000  0.0000000000  0.0000000000
4
scale = 1.60000
K   6.2718084800  2.1923545440  -2.1401689920
K   0.9403372800  6.5770636160  -2.1401689920
K   3.6060728800  4.3847090720  -8.2072736320
Li  0.0000000000  0.0000000000  0.0000000000
4
scale = 1.65000
K   6.4678024950  2.2608656235  -2.2070492730
K   0.9697228200  6.7825968540  -2.2070492730
K   3.7187626575  4.5217312305  -8.4637509330
Li  0.0000000000  0.0000000000  0.0000000000
4
scale = 1.70000
K   6.6637965100  2.3293767030  -2.2739295540
K   0.9991083600  6.9881300920  -2.2739295540
K   3.8314524350  4.6587533890  -8.7202282340
Li  0.0000000000  0.0000000000  0.0000000000
4
scale = 1.75000
K   6.8597905250  2.3978877825  -2.3408098350
K   1.0284939000  7.1936633300  -2.3408098350
K   3.9441422125  4.7957755475  -8.9767055350
Li  0.0000000000  0.0000000000  0.0000000000
4
scale = 1.80000
K   7.0557845400  2.4663988620  -2.4076901160
K   1.0578794400  7.3991965680  -2.4076901160
K   4.0568319900  4.9327977060  -9.2331828360
Li  0.0000000000  0.0000000000  0.0000000000
4
scale = 1.85000
K   7.2517785550  2.5349099415  -2.4745703970
K   1.0872649800  7.6047298060  -2.4745703970
K   4.1695217675  5.0698198645  -9.4896601370
Li  0.0000000000  0.0000000000  0.0000000000
4
scale = 1.90000
K   7.4477725700  2.6034210210  -2.5414506780
K   1.1166505200  7.8102630440  -2.5414506780
K   4.2822115450  5.2068420230  -9.7461374380
Li  0.0000000000  0.0000000000  0.0000000000
4
scale = 1.95000
K   7.6437665850  2.6719321005  -2.6083309590
K   1.1460360600  8.0157962820  -2.6083309590
K   4.3949013225  5.3438641815  -10.0026147390
Li  0.0000000000  0.0000000000  0.0000000000
4
scale = 2.00000
K   7.8397606000  2.7404431800  -2.6752112400
K   1.1754216000  8.2213295200  -2.6752112400
K   4.5075911000  5.4808863400  -10.2590920400
Li  0.0000000000  0.0000000000  0.0000000000
4
scale = 2.05000
K   8.0357546150  2.8089542595  -2.7420915210
K   1.2048071400  8.4268627580  -2.7420915210
K   4.6202808775  5.6179084985  -10.5155693410
Li  0.0000000000  0.0000000000  0.0000000000
4
scale = 2.10000
K   8.2317486300  2.8774653390  -2.8089718020
K   1.2341926800  8.6323959960  -2.8089718020
K   4.7329706550  5.7549306570  -10.7720466420
Li  0.0000000000  0.0000000000  0.0000000000
4
scale = 2.15000
K   8.4277426450  2.9459764185  -2.8758520830
K   1.2635782200  8.8379292340  -2.8758520830
K   4.8456604325  5.8919528155  -11.0285239430
Li  0.0000000000  0.0000000000  0.0000000000
4
scale = 2.20000
K   8.6237366600  3.0144874980  -2.9427323640
K   1.2929637600  9.0434624720  -2.9427323640
K   4.9583502100  6.0289749740  -11.2850012440
Li  0.0000000000  0.0000000000  0.0000000000
4
scale = 2.25000
K   8.8197306750  3.0829985775  -3.0096126450
K   1.3223493000  9.2489957100  -3.0096126450
K   5.0710399875  6.1659971325  -11.5414785450
Li  0.0000000000  0.0000000000  0.0000000000
4
scale = 2.30000
K   9.0157246900  3.1515096570  -3.0764929260
K   1.3517348400  9.4545289480  -3.0764929260
K   5.1837297650  6.3030192910  -11.7979558460
Li  0.0000000000  0.0000000000  0.0000000000
4
scale = 2.35000
K   9.2117187050  3.2200207365  -3.1433732070
K   1.3811203800  9.6600621860  -3.1433732070
K   5.2964195425  6.4400414495  -12.0544331470
Li  0.0000000000  0.0000000000  0.0000000000
4
scale = 2.40000
K   9.4077127200  3.2885318160  -3.2102534880
K   1.4105059200  9.8655954240  -3.2102534880
K   5.4091093200  6.5770636080  -12.3109104480
Li  0.0000000000  0.0000000000  0.0000000000
4
scale = 2.45000
K   9.6037067350  3.3570428955  -3.2771337690
K   1.4398914600  10.0711286620  -3.2771337690
K   5.5217990975  6.7140857665  -12.5673877490
Li  0.0000000000  0.0000000000  0.0000000000
