4
scale = 0.75000
K   -0.0000000000  2.3194488750  2.3194488750
K   2.3194488750  0.0000000000  2.3194488750
K   2.3194488750  2.3194488750  0.0000000000
Li  0.0000000000  0.0000000000  0.0000000000
4
scale = 0.80000
K   -0.0000000000  2.4740788000  2.4740788000
K   2.4740788000  0.0000000000  2.4740788000
K   2.4740788000  2.4740788000  0.0000000000
Li  0.0000000000  0.0000000000  0.0000000000
4
scale = 0.85000
K   -0.0000000000  2.6287087250  2.6287087250
K   2.6287087250  0.0000000000  2.6287087250
K   2.6287087250  2.6287087250  0.0000000000
Li  0.0000000000  0.0000000000  0.0000000000
4
scale = 0.90000
K   -0.0000000000  2.7833386500  2.7833386500
K   2.7833386500  0.0000000000  2.7833386500
K   2.7833386500  2.7833386500  0.0000000000
Li  0.0000000000  0.0000000000  0.0000000000
4
scale = 0.95000
K   -0.0000000000  2.9379685750  2.9379685750
K   2.9379685750  0.0000000000  2.9379685750
K   2.9379685750  2.9379685750  0.0000000000
Li  0.0000000000  0.0000000000  0.0000000000
4
scale = 1.00000
K   -0.0000000000  3.0925985000  3.0925985000
K   3.0925985000  0.0000000000  3.0925985000
K   3.0925985000  3.0925985000  0.0000000000
Li  0.0000000000  0.0000000000  0.0000000000
4
scale = 1.05000
K   -0.0000000000  3.2472284250  3.2472284250
K   3.2472284250  0.0000000000  3.2472284250
K   3.2472284250  3.2472284250  0.0000000000
Li  0.0000000000  0.0000000000  0.0000000000
4
scale = 1.10000
K   -0.0000000000  3.4018583500  3.4018583500
K   3.4018583500  0.0000000000  3.4018583500
K   3.4018583500  3.4018583500  0.0000000000
Li  0.0000000000  0.0000000000  0.0000000000
4
scale = 1.15000
K   -0.0000000000  3.5564882750  3.5564882750
K   3.5564882750  0.0000000000  3.5564882750
K   3.5564882750  3.5564882750  0.0000000000
Li  0.0000000000  0.0000000000  0.0000000000
4
scale = 1.20000
K   -0.0000000000  3.7111182000  3.7111182000
K   3.7111182000  0.0000000000  3.7111182000
K   3.7111182000  3.7111182000  0.0000000000
Li  0.0000000000  0.0000000000  0.0000000000
4
scale = 1.25000
K   -0.0000000000  3.8657481250  3.8657481250
K   3.8657481250  0.0000000000  3.8657481250
K   3.8657481250  3.8657481250  0.0000000000
Li  0.0000000000  0.0000000000  0.0000000000
4
scale = 1.30000
K   -0.0000000000  4.0203780500  4.0203780500
K   4.0203780500  0.0000000000  4.0203780500
K   4.0203780500  4.0203780500  0.0000000000
Li  0.0000000000  0.0000000000  0.0000000000
4
scale = 1.35000
K   -0.0000000000  4.1750079750  4.1750079750
K   4.1750079750  0.0000000000  4.1750079750
K   4.1750079750  4.1750079750  0.0000000000
Li  0.0000000000  0.0000000000  0.0000000000
4
scale = 1.40000
K   -0.0000000000  4.3296379000  4.3296379000
K   4.3296379000  0.0000000000  4.3296379000
K   4.3296379000  4.3296379000  0.0000000000
Li  0.0000000000  0.0000000000  0.0000000000
4
scale = 1.45000
K   -0.0000000000  4.4842678250  4.4842678250
K   4.4842678250  0.0000000000  4.4842678250
K   4.4842678250  4.4842678250  0.0000000000
Li  0.0000000000  0.0000000000  0.0000000000
4
scale = 1.50000
K   -0.0000000000  4.6388977500  4.6388977500
K   4.6388977500  0.0000000000  4.6388977500
K   4.6388977500  4.6388977500  0.0000000000
Li  0.0000000000  0.0000000000  0.0000000000
4
scale = 1.55000
K   -0.0000000000  4.7935276750  4.7935276750
K   4.7935276750  0.0000000000  4.7935276750
K   4.7935276750  4.7935276750  0.0000000000
Li  0.0000000000  0.0000000000  0.0000000000
4
scale = 1.60000
K   -0.0000000000  4.9481576000  4.9481576000
K   4.9481576000  0.0000000000  4.9481576000
K   4.9481576000  4.9481576000  0.0000000000
Li  0.0000000000  0.0000000000  0.0000000000
4
scale = 1.65000
K   -0.0000000000  5.1027875250  5.1027875250
K   5.1027875250  0.0000000000  5.1027875250
K   5.1027875250  5.1027875250  0.0000000000
Li  0.0000000000  0.0000000000  0.0000000000
4
scale = 1.70000
K   -0.0000000000  5.2574174500  5.2574174500
K   5.2574174500  0.0000000000  5.2574174500
K   5.2574174500  5.2574174500  0.0000000000
Li  0.0000000000  0.0000000000  0.0000000000
4
scale = 1.75000
K   -0.0000000000  5.4120473750  5.4120473750
K   5.4120473750  0.0000000000  5.4120473750
K   5.4120473750  5.4120473750  0.0000000000
Li  0.0000000000  0.0000000000  0.0000000000
4
scale = 1.80000
K   -0.0000000000  5.5666773000  5.5666773000
K   5.5666773000  0.0000000000  5.5666773000
K   5.5666773000  5.5666773000  0.0000000000
Li  0.0000000000  0.0000000000  0.0000000000
4
scale = 1.85000
K   -0.0000000000  5.7213072250  5.7213072250
K   5.7213072250  0.0000000000  5.7213072250
K   5.7213072250  5.7213072250  0.0000000000
Li  0.0000000000  0.0000000000  0.0000000000
4
scale = 1.90000
K   -0.0000000000  5.8759371500  5.8759371500
K   5.8759371500  0.0000000000  5.8759371500
K   5.8759371500  5.8759371500  0.0000000000
Li  0.0000000000  0.0000000000  0.0000000000
4
scale = 1.95000
K   -0.0000000000  6.0305670750  6.0305670750
K   6.0305670750  0.0000000000  6.0305670750
K   6.0305670750  6.0305670750  0.0000000000
Li  0.0000000000  0.0000000000  0.0000000000
4
scale = 2.00000
K   -0.0000000000  6.1851970000  6.1851970000
K   6.1851970000  0.0000000000  6.1851970000
K   6.1851970000  6.1851970000  0.0000000000
Li  0.0000000000  0.0000000000  0.0000000000
4
scale = 2.05000
K   -0.0000000000  6.3398269250  6.3398269250
K   6.3398269250  0.0000000000  6.3398269250
K   6.3398269250  6.3398269250  0.0000000000
Li  0.0000000000  0.0000000000  0.0000000000
4
scale = 2.10000
K   -0.0000000000  6.4944568500  6.4944568500
K   6.4944568500  0.0000000000  6.4944568500
K   6.4944568500  6.4944568500  0.0000000000
Li  0.0000000000  0.0000000000  0.0000000000
4
scale = 2.15000
K   -0.0000000000  6.6490867750  6.6490867750
K   6.6490867750  0.0000000000  6.6490867750
K   6.6490867750  6.6490867750  0.0000000000
Li  0.0000000000  0.0000000000  0.0000000000
4
scale = 2.20000
K   -0.0000000000  6.8037167000  6.8037167000
K   6.8037167000  0.0000000000  6.8037167000
K   6.8037167000  6.8037167000  0.0000000000
Li  0.0000000000  0.0000000000  0.0000000000
4
scale = 2.25000
K   -0.0000000000  6.9583466250  6.9583466250
K   6.9583466250  0.0000000000  6.9583466250
K   6.9583466250  6.9583466250  0.0000000000
Li  0.0000000000  0.0000000000  0.0000000000
4
scale = 2.30000
K   -0.0000000000  7.1129765500  7.1129765500
K   7.1129765500  0.0000000000  7.1129765500
K   7.1129765500  7.1129765500  0.0000000000
Li  0.0000000000  0.0000000000  0.0000000000
4
scale = 2.35000
K   -0.0000000000  7.2676064750  7.2676064750
K   7.2676064750  0.0000000000  7.2676064750
K   7.2676064750  7.2676064750  0.0000000000
Li  0.0000000000  0.0000000000  0.0000000000
4
scale = 2.40000
K   -0.0000000000  7.4222364000  7.4222364000
K   7.4222364000  0.0000000000  7.4222364000
K   7.4222364000  7.4222364000  0.0000000000
Li  0.0000000000  0.0000000000  0.0000000000
4
scale = 2.45000
K   -0.0000000000  7.5768663250  7.5768663250
K   7.5768663250  0.0000000000  7.5768663250
K   7.5768663250  7.5768663250  0.0000000000
Li  0.0000000000  0.0000000000  0.0000000000
