12
scale = 0.75000
Li  3.5618865150  2.5186341075  6.1693684125
Li  1.7300734575  2.5186341075  5.1117706500
Li  2.9512821600  0.7915841925  5.1117706500
Li  2.6968520025  0.6116749050  2.5558891575
Li  0.8650389450  0.6116749050  1.4982913950
Li  3.5618865150  2.5186341075  4.0541728875
Li  1.4756432925  2.3387248125  2.5558891575
Li  0.8650389450  0.6116749050  3.6134869200
Al  5.1647463675  3.6520271775  8.9456031150
Al  2.9512836375  3.6520271775  7.6676598150
Al  4.4269254525  1.5651545025  7.6676598150
Al  5.1647463675  3.6520271775  6.3897165075
12
scale = 0.80000
Li  3.7993456160  2.6865430480  6.5806596400
Li  1.8454116880  2.6865430480  5.4525553600
Li  3.1480343040  0.8443564720  5.4525553600
Li  2.8766421360  0.6524532320  2.7262817680
Li  0.9227082080  0.6524532320  1.5981774880
Li  3.7993456160  2.6865430480  4.3244510800
Li  1.5740195120  2.4946398000  2.7262817680
Li  0.9227082080  0.6524532320  3.8543860480
Al  5.5090627920  3.8954956560  9.5419766560
Al  3.1480358800  3.8954956560  8.1788371360
Al  4.7220538160  1.6694981360  8.1788371360
Al  5.5090627920  3.8954956560  6.8156976080
12
scale = 0.85000
Li  4.0368047170  2.8544519885  6.9919508675
Li  1.9607499185  2.8544519885  5.7933400700
Li  3.3447864480  0.8971287515  5.7933400700
Li  3.0564322695  0.6932315590  2.8966743785
Li  0.9803774710  0.6932315590  1.6980635810
Li  4.0368047170  2.8544519885  4.5947292725
Li  1.6723957315  2.6505547875  2.8966743785
Li  0.9803774710  0.6932315590  4.0952851760
Al  5.8533792165  4.1389641345  10.1383501970
Al  3.3447881225  4.1389641345  8.6900144570
Al  5.0171821795  1.7738417695  8.6900144570
Al  5.8533792165  4.1389641345  7.2416787085
12
scale = 0.90000
Li  4.2742638180  3.0223609290  7.4032420950
Li  2.0760881490  3.0223609290  6.1341247800
Li  3.5415385920  0.9499010310  6.1341247800
Li  3.2362224030  0.7340098860  3.0670669890
Li  1.0380467340  0.7340098860  1.7979496740
Li  4.2742638180  3.0223609290  4.8650074650
Li  1.7707719510  2.8064697750  3.0670669890
Li  1.0380467340  0.7340098860  4.3361843040
Al  6.1976956410  4.3824326130  10.7347237380
Al  3.5415403650  4.3824326130  9.2011917780
Al  5.3123105430  1.8781854030  9.2011917780
Al  6.1976956410  4.3824326130  7.6676598090
12
scale = 0.95000
Li  4.5117229190  3.1902698695  7.8145333225
Li  2.1914263795  3.1902698695  6.4749094900
Li  3.7382907360  1.0026733105  6.4749094900
Li  3.4160125365  0.7747882130  3.2374595995
Li  1.0957159970  0.7747882130  1.8978357670
Li  4.5117229190  3.1902698695  5.1352856575
Li  1.8691481705  2.9623847625  3.2374595995
Li  1.0957159970  0.7747882130  4.5770834320
Al  6.5420120655  4.6259010915  11.3310972790
Al  3.7382926075  4.6259010915  9.7123690990
Al  5.6074389065  1.9825290365  9.7123690990
Al  6.5420120655  4.6259010915  8.0936409095
12
scale = 1.00000
Li  4.7491820200  3.3581788100  8.2258245500
Li  2.3067646100  3.3581788100  6.8156942000
Li  3.9350428800  1.0554455900  6.8156942000
Li  3.5958026700  0.8155665400  3.4078522100
Li  1.1533852600  0.8155665400  1.9977218600
Li  4.7491820200  3.3581788100  5.4055638500
Li  1.9675243900  3.1182997500  3.4078522100
Li  1.1533852600  0.8155665400  4.8179825600
Al  6.8863284900  4.8693695700  11.9274708200
Al  3.9350448500  4.8693695700  10.2235464200
Al  5.9025672700  2.0868726700  10.2235464200
Al  6.8863284900  4.8693695700  8.5196220100
12
scale = 1.05000
Li  4.9866411210  3.5260877505  8.6371157775
Li  2.4221028405  3.5260877505  7.1564789100
Li  4.1317950240  1.1082178695  7.1564789100
Li  3.7755928035  0.8563448670  3.5782448205
Li  1.2110545230  0.8563448670  2.0976079530
Li  4.9866411210  3.5260877505  5.6758420425
Li  2.0659006095  3.2742147375  3.5782448205
Li  1.2110545230  0.8563448670  5.0588816880
Al  7.2306449145  5.1128380485  12.5238443610
Al  4.1317970925  5.1128380485  10.7347237410
Al  6.1976956335  2.1912163035  10.7347237410
Al  7.2306449145  5.1128380485  8.9456031105
12
scale = 1.10000
Li  5.2241002220  3.6939966910  9.0484070050
Li  2.5374410710  3.6939966910  7.4972636200
Li  4.3285471680  1.1609901490  7.4972636200
Li  3.9553829370  0.8971231940  3.7486374310
Li  1.2687237860  0.8971231940  2.1974940460
Li  5.2241002220  3.6939966910  5.9461202350
Li  2.1642768290  3.4301297250  3.7486374310
Li  1.2687237860  0.8971231940  5.2997808160
Al  7.5749613390  5.3563065270  13.1202179020
Al  4.3285493350  5.3563065270  11.2459010620
Al  6.4928239970  2.2955599370  11.2459010620
Al  7.5749613390  5.3563065270  9.3715842110
12
scale = 1.15000
Li  5.4615593230  3.8619056315  9.4596982325
Li  2.6527793015  3.8619056315  7.8380483300
Li  4.5252993120  1.2137624285  7.8380483300
Li  4.1351730705  0.9379015210  3.9190300415
Li  1.3263930490  0.9379015210  2.2973801390
Li  5.4615593230  3.8619056315  6.2163984275
Li  2.2626530485  3.5860447125  3.9190300415
Li  1.3263930490  0.9379015210  5.5406799440
Al  7.9192777635  5.5997750055  13.7165914430
Al  4.5253015775  5.5997750055  11.7570783830
Al  6.7879523605  2.3999035705  11.7570783830
Al  7.9192777635  5.5997750055  9.7975653115
12
scale = 1.20000
Li  5.6990184240  4.0298145720  9.8709894600
Li  2.7681175320  4.0298145720  8.1788330400
Li  4.7220514560  1.2665347080  8.1788330400
Li  4.3149632040  0.9786798480  4.0894226520
Li  1.3840623120  0.9786798480  2.3972662320
Li  5.6990184240  4.0298145720  6.4866766200
Li  2.3610292680  3.7419597000  4.0894226520
Li  1.3840623120  0.9786798480  5.7815790720
Al  8.2635941880  5.8432434840  14.3129649840
Al  4.7220538200  5.8432434840  12.2682557040
Al  7.0830807240  2.5042472040  12.2682557040
Al  8.2635941880  5.8432434840  10.2235464120
12
scale = 1.25000
Li  5.9364775250  4.1977235125  10.2822806875
Li  2.8834557625  4.1977235125  8.5196177500
Li  4.9188036000  1.3193069875  8.5196177500
Li  4.4947533375  1.0194581750  4.2598152625
Li  1.4417315750  1.0194581750  2.4971523250
Li  5.9364775250  4.1977235125  6.7569548125
Li  2.4594054875  3.8978746875  4.2598152625
Li  1.4417315750  1.0194581750  6.0224782000
Al  8.6079106125  6.0867119625  14.9093385250
Al  4.9188060625  6.0867119625  12.7794330250
Al  7.3782090875  2.6085908375  12.7794330250
Al  8.6079106125  6.0867119625  10.6495275125
12
scale = 1.30000
Li  6.1739366260  4.3656324530  10.6935719150
Li  2.9987939930  4.3656324530  8.8604024600
Li  5.1155557440  1.3720792670  8.8604024600
Li  4.6745434710  1.0602365020  4.4302078730
Li  1.4994008380  1.0602365020  2.5970384180
Li  6.1739366260  4.3656324530  7.0272330050
Li  2.5577817070  4.0537896750  4.4302078730
Li  1.4994008380  1.0602365020  6.2633773280
Al  8.9522270370  6.3301804410  15.5057120660
Al  5.1155583050  6.3301804410  13.2906103460
Al  7.6733374510  2.7129344710  13.2906103460
Al  8.9522270370  6.3301804410  11.0755086130
12
scale = 1.35000
Li  6.4113957270  4.5335413935  11.1048631425
Li  3.1141322235  4.5335413935  9.2011871700
Li  5.3123078880  1.4248515465  9.2011871700
Li  4.8543336045  1.1010148290  4.6006004835
Li  1.5570701010  1.1010148290  2.6969245110
Li  6.4113957270  4.5335413935  7.2975111975
Li  2.6561579265  4.2097046625  4.6006004835
Li  1.5570701010  1.1010148290  6.5042764560
Al  9.2965434615  6.5736489195  16.1020856070
Al  5.3123105475  6.5736489195  13.8017876670
Al  7.9684658145  2.8172781045  13.8017876670
Al  9.2965434615  6.5736489195  11.5014897135
12
scale = 1.40000
Li  6.6488548280  4.7014503340  11.5161543700
Li  3.2294704540  4.7014503340  9.5419718800
Li  5.5090600320  1.4776238260  9.5419718800
Li  5.0341237380  1.1417931560  4.7709930940
Li  1.6147393640  1.1417931560  2.7968106040
Li  6.6488548280  4.7014503340  7.5677893900
Li  2.7545341460  4.3656196500  4.7709930940
Li  1.6147393640  1.1417931560  6.7451755840
Al  9.6408598860  6.8171173980  16.6984591480
Al  5.5090627900  6.8171173980  14.3129649880
Al  8.2635941780  2.9216217380  14.3129649880
Al  9.6408598860  6.8171173980  11.9274708140
12
scale = 1.45000
Li  6.8863139290  4.8693592745  11.9274455975
Li  3.3448086845  4.8693592745  9.8827565900
Li  5.7058121760  1.5303961055  9.8827565900
Li  5.2139138715  1.1825714830  4.9413857045
Li  1.6724086270  1.1825714830  2.8966966970
Li  6.8863139290  4.8693592745  7.8380675825
Li  2.8529103655  4.5215346375  4.9413857045
Li  1.6724086270  1.1825714830  6.9860747120
Al  9.9851763105  7.0605858765  17.2948326890
Al  5.7058150325  7.0605858765  14.8241423090
Al  8.5587225415  3.0259653715  14.8241423090
Al  9.9851763105  7.0605858765  12.3534519145
12
scale = 1.50000
Li  7.1237730300  5.0372682150  12.3387368250
Li  3.4601469150  5.0372682150  10.2235413000
Li  5.9025643200  1.5831683850  10.2235413000
Li  5.3937040050  1.2233498100  5.1117783150
Li  1.7300778900  1.2233498100  2.9965827900
Li  7.1237730300  5.0372682150  8.1083457750
Li  2.9512865850  4.6774496250  5.1117783150
Li  1.7300778900  1.2233498100  7.2269738400
Al  10.3294927350  7.3040543550  17.8912062300
Al  5.9025672750  7.3040543550  15.3353196300
Al  8.8538509050  3.1303090050  15.3353196300
Al  10.3294927350  7.3040543550  12.7794330150
12
scale = 1.55000
Li  7.3612321310  5.2051771555  12.7500280525
Li  3.5754851455  5.2051771555  10.5643260100
Li  6.0993164640  1.6359406645  10.5643260100
Li  5.5734941385  1.2641281370  5.2821709255
Li  1.7877471530  1.2641281370  3.0964688830
Li  7.3612321310  5.2051771555  8.3786239675
Li  3.0496628045  4.8333646125  5.2821709255
Li  1.7877471530  1.2641281370  7.4678729680
Al  10.6738091595  7.5475228335  18.4875797710
Al  6.0993195175  7.5475228335  15.8464969510
Al  9.1489792685  3.2346526385  15.8464969510
Al  10.6738091595  7.5475228335  13.2054141155
12
scale = 1.60000
Li  7.5986912320  5.3730860960  13.1613192800
Li  3.6908233760  5.3730860960  10.9051107200
Li  6.2960686080  1.6887129440  10.9051107200
Li  5.7532842720  1.3049064640  5.4525635360
Li  1.8454164160  1.3049064640  3.1963549760
Li  7.5986912320  5.3730860960  8.6489021600
Li  3.1480390240  4.9892796000  5.4525635360
Li  1.8454164160  1.3049064640  7.7087720960
Al  11.0181255840  7.7909913120  19.0839533120
Al  6.2960717600  7.7909913120  16.3576742720
Al  9.4441076320  3.3389962720  16.3576742720
Al  11.0181255840  7.7909913120  13.6313952160
12
scale = 1.65000
Li  7.8361503330  5.5409950365  13.5726105075
Li  3.8061616065  5.5409950365  11.2458954300
Li  6.4928207520  1.7414852235  11.2458954300
Li  5.9330744055  1.3456847910  5.6229561465
Li  1.9030856790  1.3456847910  3.2962410690
Li  7.8361503330  5.5409950365  8.9191803525
Li  3.2464152435  5.1451945875  5.6229561465
Li  1.9030856790  1.3456847910  7.9496712240
Al  11.3624420085  8.0344597905  19.6803268530
Al  6.4928240025  8.0344597905  16.8688515930
Al  9.7392359955  3.4433399055  16.8688515930
Al  11.3624420085  8.0344597905  14.0573763165
12
scale = 1.70000
Li  8.0736094340  5.7089039770  13.9839017350
Li  3.9214998370  5.7089039770  11.5866801400
Li  6.6895728960  1.7942575030  11.5866801400
Li  6.1128645390  1.3864631180  5.7933487570
Li  1.9607549420  1.3864631180  3.3961271620
Li  8.0736094340  5.7089039770  9.1894585450
Li  3.3447914630  5.3011095750  5.7933487570
Li  1.9607549420  1.3864631180  8.1905703520
Al  11.7067584330  8.2779282690  20.2767003940
Al  6.6895762450  8.2779282690  17.3800289140
Al  10.0343643590  3.5476835390  17.3800289140
Al  11.7067584330  8.2779282690  14.4833574170
12
scale = 1.75000
Li  8.3110685350  5.8768129175  14.3951929625
Li  4.0368380675  5.8768129175  11.9274648500
Li  6.8863250400  1.8470297825  11.9274648500
Li  6.2926546725  1.4272414450  5.9637413675
Li  2.0184242050  1.4272414450  3.4960132550
Li  8.3110685350  5.8768129175  9.4597367375
Li  3.4431676825  5.4570245625  5.9637413675
Li  2.0184242050  1.4272414450  8.4314694800
Al  12.0510748575  8.5213967475  20.8730739350
Al  6.8863284875  8.5213967475  17.8912062350
Al  10.3294927225  3.6520271725  17.8912062350
Al  12.0510748575  8.5213967475  14.9093385175
12
scale = 1.80000
Li  8.5485276360  6.0447218580  14.8064841900
Li  4.1521762980  6.0447218580  12.2682495600
Li  7.0830771840  1.8998020620  12.2682495600
Li  6.4724448060  1.4680197720  6.1341339780
Li  2.0760934680  1.4680197720  3.5958993480
Li  8.5485276360  6.0447218580  9.7300149300
Li  3.5415439020  5.6129395500  6.1341339780
Li  2.0760934680  1.4680197720  8.6723686080
Al  12.3953912820  8.7648652260  21.4694474760
Al  7.0830807300  8.7648652260  18.4023835560
Al  10.6246210860  3.7563708060  18.4023835560
Al  12.3953912820  8.7648652260  15.3353196180
12
scale = 1.85000
Li  8.7859867370  6.2126307985  15.2177754175
Li  4.2675145285  6.2126307985  12.6090342700
Li  7.2798293280  1.9525743415  12.6090342700
Li  6.6522349395  1.5087980990  6.3045265885
Li  2.1337627310  1.5087980990  3.6957854410
Li  8.7859867370  6.2126307985  10.0002931225
Li  3.6399201215  5.7688545375  6.3045265885
Li  2.1337627310  1.5087980990  8.9132677360
Al  12.7397077065  9.0083337045  22.0658210170
Al  7.2798329725  9.0083337045  18.9135608770
Al  10.9197494495  3.8607144395  18.9135608770
Al  12.7397077065  9.0083337045  15.7613007185
12
scale = 1.90000
Li  9.0234458380  6.3805397390  15.6290666450
Li  4.3828527590  6.3805397390  12.9498189800
Li  7.4765814720  2.0053466210  12.9498189800
Li  6.8320250730  1.5495764260  6.4749191990
Li  2.1914319940  1.5495764260  3.7956715340
Li  9.0234458380  6.3805397390  10.2705713150
Li  3.7382963410  5.9247695250  6.4749191990
Li  2.1914319940  1.5495764260  9.1541668640
Al  13.0840241310  9.2518021830  22.6621945580
Al  7.4765852150  9.2518021830  19.4247381980
Al  11.2148778130  3.9650580730  19.4247381980
Al  13.0840241310  9.2518021830  16.1872818190
12
scale = 1.95000
Li  9.2609049390  6.5484486795  16.0403578725
Li  4.4981909895  6.5484486795  13.2906036900
Li  7.6733336160  2.0581189005  13.2906036900
Li  7.0118152065  1.5903547530  6.6453118095
Li  2.2491012570  1.5903547530  3.8955576270
Li  9.2609049390  6.5484486795  10.5408495075
Li  3.8366725605  6.0806845125  6.6453118095
Li  2.2491012570  1.5903547530  9.3950659920
Al  13.4283405555  9.4952706615  23.2585680990
Al  7.6733374575  9.4952706615  19.9359155190
Al  11.5100061765  4.0694017065  19.9359155190
Al  13.4283405555  9.4952706615  16.6132629195
12
scale = 2.00000
Li  9.4983640400  6.7163576200  16.4516491000
Li  4.6135292200  6.7163576200  13.6313884000
Li  7.8700857600  2.1108911800  13.6313884000
Li  7.1916053400  1.6311330800  6.8157044200
Li  2.3067705200  1.6311330800  3.9954437200
Li  9.4983640400  6.7163576200  10.8111277000
Li  3.9350487800  6.2365995000  6.8157044200
Li  2.3067705200  1.6311330800  9.6359651200
Al  13.7726569800  9.7387391400  23.8549416400
Al  7.8700897000  9.7387391400  20.4470928400
Al  11.8051345400  4.1737453400  20.4470928400
Al  13.7726569800  9.7387391400  17.0392440200
12
scale = 2.05000
Li  9.7358231410  6.8842665605  16.8629403275
Li  4.7288674505  6.8842665605  13.9721731100
Li  8.0668379040  2.1636634595  13.9721731100
Li  7.3713954735  1.6719114070  6.9860970305
Li  2.3644397830  1.6719114070  4.0953298130
Li  9.7358231410  6.8842665605  11.0814058925
Li  4.0334249995  6.3925144875  6.9860970305
Li  2.3644397830  1.6719114070  9.8768642480
Al  14.1169734045  9.9822076185  24.4513151810
Al  8.0668419425  9.9822076185  20.9582701610
Al  12.1002629035  4.2780889735  20.9582701610
Al  14.1169734045  9.9822076185  17.4652251205
12
scale = 2.10000
Li  9.9732822420  7.0521755010  17.2742315550
Li  4.8442056810  7.0521755010  14.3129578200
Li  8.2635900480  2.2164357390  14.3129578200
Li  7.5511856070  1.7126897340  7.1564896410
Li  2.4221090460  1.7126897340  4.1952159060
Li  9.9732822420  7.0521755010  11.3516840850
Li  4.1318012190  6.5484294750  7.1564896410
Li  2.4221090460  1.7126897340  10.1177633760
Al  14.4612898290  10.2256760970  25.0476887220
Al  8.2635941850  10.2256760970  21.4694474820
Al  12.3953912670  4.3824326070  21.4694474820
Al  14.4612898290  10.2256760970  17.8912062210
12
scale = 2.15000
Li  10.2107413430  7.2200844415  17.6855227825
Li  4.9595439115  7.2200844415  14.6537425300
Li  8.4603421920  2.2692080185  14.6537425300
Li  7.7309757405  1.7534680610  7.3268822515
Li  2.4797783090  1.7534680610  4.2951019990
Li  10.2107413430  7.2200844415  11.6219622775
Li  4.2301774385  6.7043444625  7.3268822515
Li  2.4797783090  1.7534680610  10.3586625040
Al  14.8056062535  10.4691445755  25.6440622630
Al  8.4603464275  10.4691445755  21.9806248030
Al  12.6905196305  4.4867762405  21.9806248030
Al  14.8056062535  10.4691445755  18.3171873215
12
scale = 2.20000
Li  10.4482004440  7.3879933820  18.0968140100
Li  5.0748821420  7.3879933820  14.9945272400
Li  8.6570943360  2.3219802980  14.9945272400
Li  7.9107658740  1.7942463880  7.4972748620
Li  2.5374475720  1.7942463880  4.3949880920
Li  10.4482004440  7.3879933820  11.8922404700
Li  4.3285536580  6.8602594500  7.4972748620
Li  2.5374475720  1.7942463880  10.5995616320
Al  15.1499226780  10.7126130540  26.2404358040
Al  8.6570986700  10.7126130540  22.4918021240
Al  12.9856479940  4.5911198740  22.4918021240
Al  15.1499226780  10.7126130540  18.7431684220
12
scale = 2.25000
Li  10.6856595450  7.5559023225  18.5081052375
Li  5.1902203725  7.5559023225  15.3353119500
Li  8.8538464800  2.3747525775  15.3353119500
Li  8.0905560075  1.8350247150  7.6676674725
Li  2.5951168350  1.8350247150  4.4948741850
Li  10.6856595450  7.5559023225  12.1625186625
Li  4.4269298775  7.0161744375  7.6676674725
Li  2.5951168350  1.8350247150  10.8404607600
Al  15.4942391025  10.9560815325  26.8368093450
Al  8.8538509125  10.9560815325  23.0029794450
Al  13.2807763575  4.6954635075  23.0029794450
Al  15.4942391025  10.9560815325  19.1691495225
12
scale = 2.30000
Li  10.9231186460  7.7238112630  18.9193964650
Li  5.3055586030  7.7238112630  15.6760966600
Li  9.0505986240  2.4275248570  15.6760966600
Li  8.2703461410  1.8758030420  7.8380600830
Li  2.6527860980  1.8758030420  4.5947602780
Li  10.9231186460  7.7238112630  12.4327968550
Li  4.5253060970  7.1720894250  7.8380600830
Li  2.6527860980  1.8758030420  11.0813598880
Al  15.8385555270  11.1995500110  27.4331828860
Al  9.0506031550  11.1995500110  23.5141567660
Al  13.5759047210  4.7998071410  23.5141567660
Al  15.8385555270  11.1995500110  19.5951306230
12
scale = 2.35000
Li  11.1605777470  7.8917202035  19.3306876925
Li  5.4208968335  7.8917202035  16.0168813700
Li  9.2473507680  2.4802971365  16.0168813700
Li  8.4501362745  1.9165813690  8.0084526935
Li  2.7104553610  1.9165813690  4.6946463710
Li  11.1605777470  7.8917202035  12.7030750475
Li  4.6236823165  7.3280044125  8.0084526935
Li  2.7104553610  1.9165813690  11.3222590160
Al  16.1828719515  11.4430184895  28.0295564270
Al  9.2473553975  11.4430184895  24.0253340870
Al  13.8710330845  4.9041507745  24.0253340870
Al  16.1828719515  11.4430184895  20.0211117235
12
scale = 2.40000
Li  11.3980368480  8.0596291440  19.7419789200
Li  5.5362350640  8.0596291440  16.3576660800
Li  9.4441029120  2.5330694160  16.3576660800
Li  8.6299264080  1.9573596960  8.1788453040
Li  2.7681246240  1.9573596960  4.7945324640
Li  11.3980368480  8.0596291440  12.9733532400
Li  4.7220585360  7.4839194000  8.1788453040
Li  2.7681246240  1.9573596960  11.5631581440
Al  16.5271883760  11.6864869680  28.6259299680
Al  9.4441076400  11.6864869680  24.5365114080
Al  14.1661614480  5.0084944080  24.5365114080
Al  16.5271883760  11.6864869680  20.4470928240
12
scale = 2.45000
Li  11.6354959490  8.2275380845  20.1532701475
Li  5.6515732945  8.2275380845  16.6984507900
Li  9.6408550560  2.5858416955  16.6984507900
Li  8.8097165415  1.9981380230  8.3492379145
Li  2.8257938870  1.9981380230  4.8944185570
Li  11.6354959490  8.2275380845  13.2436314325
Li  4.8204347555  7.6398343875  8.3492379145
Li  2.8257938870  1.9981380230  11.8040572720
Al  16.8715048005  11.9299554465  29.2223035090
Al  9.6408598825  11.9299554465  25.0476887290
Al  14.4612898115  5.1128380415  25.0476887290
Al  16.8715048005  11.9299554465  20.8730739245
