3
scale = 0.75000
Li  0.0098643375  0.8374505175  1.4499586950
Li  1.5310653375  1.6755066600  2.9024507025
B   0.7697523150  0.0000000000  0.0007562100
3
scale = 0.80000
Li  0.0105219600  0.8932805520  1.5466226080
Li  1.6331363600  1.7872071040  3.0959474160
B   0.8210691360  0.0000000000  0.0008066240
3
scale = 0.85000
Li  0.0111795825  0.9491105865  1.6432865210
Li  1.7352073825  1.8989075480  3.2894441295
B   0.8723859570  0.0000000000  0.0008570380
3
scale = 0.90000
Li  0.0118372050  1.0049406210  1.7399504340
Li  1.8372784050  2.0106079920  3.4829408430
B   0.9237027780  0.0000000000  0.0009074520
3
scale = 0.95000
Li  0.0124948275  1.0607706555  1.8366143470
Li  1.9393494275  2.1223084360  3.6764375565
B   0.9750195990  0.0000000000  0.0009578660
3
scale = 1.00000
Li  0.0131524500  1.1166006900  1.9332782600
Li  2.0414204500  2.2340088800  3.8699342700
B   1.0263364200  0.0000000000  0.0010082800
3
scale = 1.05000
Li  0.0138100725  1.1724307245  2.0299421730
Li  2.1434914725  2.3457093240  4.0634309835
B   1.0776532410  0.0000000000  0.0010586940
3
scale = 1.10000
Li  0.0144676950  1.2282607590  2.1266060860
Li  2.2455624950  2.4574097680  4.2569276970
B   1.1289700620  0.0000000000  0.0011091080
3
scale = 1.15000
Li  0.0151253175  1.2840907935  2.2232699990
Li  2.3476335175  2.5691102120  4.4504244105
B   1.1802868830  0.0000000000  0.0011595220
3
scale = 1.20000
Li  0.0157829400  1.3399208280  2.3199339120
Li  2.4497045400  2.6808106560  4.6439211240
B   1.2316037040  0.0000000000  0.0012099360
3
scale = 1.25000
Li  0.0164405625  1.3957508625  2.4165978250
Li  2.5517755625  2.7925111000  4.8374178375
B   1.2829205250  0.0000000000  0.0012603500
3
scale = 1.30000
Li  0.0170981850  1.4515808970  2.5132617380
Li  2.6538465850  2.9042115440  5.0309145510
B   1.3342373460  0.0000000000  0.0013107640
3
scale = 1.35000
Li  0.0177558075  1.5074109315  2.6099256510
Li  2.7559176075  3.0159119880  5.2244112645
B   1.3855541670  0.0000000000  0.0013611780
3
scale = 1.40000
Li  0.0184134300  1.5632409660  2.7065895640
Li  2.8579886300  3.1276124320  5.4179079780
B   1.4368709880  0.0000000000  0.0014115920
3
scale = 1.45000
Li  0.0190710525  1.6190710005  2.8032534770
Li  2.9600596525  3.2393128760  5.6114046915
B   1.4881878090  0.0000000000  0.0014620060
3
scale = 1.50000
Li  0.0197286750  1.6749010350  2.8999173900
Li  3.0621306750  3.3510133200  5.8049014050
B   1.5395046300  0.0000000000  0.0015124200
3
scale = 1.55000
Li  0.0203862975  1.7307310695  2.9965813030
Li  3.1642016975  3.4627137640  5.9983981185
B   1.5908214510  0.0000000000  0.0015628340
3
scale = 1.60000
Li  0.0210439200  1.7865611040  3.0932452160
Li  3.2662727200  3.5744142080  6.1918948320
B   1.6421382720  0.0000000000  0.0016132480
3
scale = 1.65000
Li  0.0217015425  1.8423911385  3.1899091290
Li  3.3683437425  3.6861146520  6.3853915455
B   1.6934550930  0.0000000000  0.0016636620
3
scale = 1.70000
Li  0.0223591650  1.8982211730  3.2865730420
Li  3.4704147650  3.7978150960  6.5788882590
B   1.7447719140  0.0000000000  0.0017140760
3
scale = 1.75000
Li  0.0230167875  1.9540512075  3.3832369550
Li  3.5724857875  3.9095155400  6.7723849725
B   1.7960887350  0.0000000000  0.0017644900
3
scale = 1.80000
Li  0.0236744100  2.0098812420  3.4799008680
Li  3.6745568100  4.0212159840  6.9658816860
B   1.8474055560  0.0000000000  0.0018149040
3
scale = 1.85000
Li  0.0243320325  2.0657112765  3.5765647810
Li  3.7766278325  4.1329164280  7.1593783995
B   1.8987223770  0.0000000000  0.0018653180
3
scale = 1.90000
Li  0.0249896550  2.1215413110  3.6732286940
Li  3.8786988550  4.2446168720  7.3528751130
B   1.9500391980  0.0000000000  0.0019157320
3
scale = 1.95000
Li  0.0256472775  2.1773713455  3.7698926070
Li  3.9807698775  4.3563173160  7.5463718265
B   2.0013560190  0.0000000000  0.0019661460
3
scale = 2.00000
Li  0.0263049000  2.2332013800  3.8665565200
Li  4.0828409000  4.4680177600  7.7398685400
B   2.0526728400  0.0000000000  0.0020165600
3
scale = 2.05000
Li  0.0269625225  2.2890314145  3.9632204330
Li  4.1849119225  4.5797182040  7.9333652535
B   2.1039896610  0.0000000000  0.0020669740
3
scale = 2.10000
Li  0.0276201450  2.3448614490  4.0598843460
Li  4.2869829450  4.6914186480  8.1268619670
B   2.1553064820  0.0000000000  0.0021173880
3
scale = 2.15000
Li  0.0282777675  2.4006914835  4.1565482590
Li  4.3890539675  4.8031190920  8.3203586805
B   2.2066233030  0.0000000000  0.0021678020
3
scale = 2.20000
Li  0.0289353900  2.4565215180  4.2532121720
Li  4.4911249900  4.9148195360  8.5138553940
B   2.2579401240  0.0000000000  0.0022182160
3
scale = 2.25000
Li  0.0295930125  2.5123515525  4.3498760850
Li  4.5931960125  5.0265199800  8.7073521075
B   2.3092569450  0.0000000000  0.0022686300
3
scale = 2.30000
Li  0.0302506350  2.5681815870  4.4465399980
Li  4.6952670350  5.1382204240  8.9008488210
B   2.3605737660  0.0000000000  0.0023190440
3
scale = 2.35000
Li  0.0309082575  2.6240116215  4.5432039110
Li  4.7973380575  5.2499208680  9.0943455345
B   2.4118905870  0.0000000000  0.0023694580
3
scale = 2.40000
Li  0.0315658800  2.6798416560  4.6398678240
Li  4.8994090800  5.3616213120  9.2878422480
B   2.4632074080  0.0000000000  0.0024198720
3
scale = 2.45000
Li  0.0322235025  2.7356716905  4.7365317370
Li  5.0014801025  5.4733217560  9.4813389615
B   2.5145242290  0.0000000000  0.0024702860
