12
scale = 0.75000
Li  1.1687468775  0.6747759900  5.7283399500
Li  -1.1537294925  3.3478698450  1.9094466525
Li  0.0000001050  1.3495520175  1.9094466525
Li  2.3224768575  2.6730938100  5.7283399500
Li  3.4762064625  0.6747759900  5.7283399500
Li  0.0000000000  0.0000000000  0.0000000000
Li  1.1537300925  3.3478698450  1.9094466525
Li  0.0000000000  0.0000000000  3.8188932975
Ca  2.3224767075  1.3408819425  0.4749915825
Ca  0.0000002625  2.6817638850  4.2938848800
Ca  0.0000002625  2.6817638850  7.1627950125
Ca  2.3224767075  1.3408819425  3.3439017150
12
scale = 0.80000
Li  1.2466633360  0.7197610560  6.1102292800
Li  -1.2306447920  3.5710611680  2.0367430960
Li  0.0000001120  1.4395221520  2.0367430960
Li  2.4773086480  2.8513000640  6.1102292800
Li  3.7079535600  0.7197610560  6.1102292800
Li  0.0000000000  0.0000000000  0.0000000000
Li  1.2306454320  3.5710611680  2.0367430960
Li  0.0000000000  0.0000000000  4.0734861840
Ca  2.4773084880  1.4302740720  0.5066576880
Ca  0.0000002800  2.8605481440  4.5801438720
Ca  0.0000002800  2.8605481440  7.6403146800
Ca  2.4773084880  1.4302740720  3.5668284960
12
scale = 0.85000
Li  1.3245797945  0.7647461220  6.4921186100
Li  -1.3075600915  3.7942524910  2.1640395395
Li  0.0000001190  1.5294922865  2.1640395395
Li  2.6321404385  3.0295063180  6.4921186100
Li  3.9397006575  0.7647461220  6.4921186100
Li  0.0000000000  0.0000000000  0.0000000000
Li  1.3075607715  3.7942524910  2.1640395395
Li  0.0000000000  0.0000000000  4.3280790705
Ca  2.6321402685  1.5196662015  0.5383237935
Ca  0.0000002975  3.0393324030  4.8664028640
Ca  0.0000002975  3.0393324030  8.1178343475
Ca  2.6321402685  1.5196662015  3.7897552770
12
scale = 0.90000
Li  1.4024962530  0.8097311880  6.8740079400
Li  -1.3844753910  4.0174438140  2.2913359830
Li  0.0000001260  1.6194624210  2.2913359830
Li  2.7869722290  3.2077125720  6.8740079400
Li  4.1714477550  0.8097311880  6.8740079400
Li  0.0000000000  0.0000000000  0.0000000000
Li  1.3844761110  4.0174438140  2.2913359830
Li  0.0000000000  0.0000000000  4.5826719570
Ca  2.7869720490  1.6090583310  0.5699898990
Ca  0.0000003150  3.2181166620  5.1526618560
Ca  0.0000003150  3.2181166620  8.5953540150
Ca  2.7869720490  1.6090583310  4.0126820580
12
scale = 0.95000
Li  1.4804127115  0.8547162540  7.2558972700
Li  -1.4613906905  4.2406351370  2.4186324265
Li  0.0000001330  1.7094325555  2.4186324265
Li  2.9418040195  3.3859188260  7.2558972700
Li  4.4031948525  0.8547162540  7.2558972700
Li  0.0000000000  0.0000000000  0.0000000000
Li  1.4613914505  4.2406351370  2.4186324265
Li  0.0000000000  0.0000000000  4.8372648435
Ca  2.9418038295  1.6984504605  0.6016560045
Ca  0.0000003325  3.3969009210  5.4389208480
Ca  0.0000003325  3.3969009210  9.0728736825
Ca  2.9418038295  1.6984504605  4.2356088390
12
scale = 1.00000
Li  1.5583291700  0.8997013200  7.6377866000
Li  -1.5383059900  4.4638264600  2.5459288700
Li  0.0000001400  1.7994026900  2.5459288700
Li  3.0966358100  3.5641250800  7.6377866000
Li  4.6349419500  0.8997013200  7.6377866000
Li  0.0000000000  0.0000000000  0.0000000000
Li  1.5383067900  4.4638264600  2.5459288700
Li  0.0000000000  0.0000000000  5.0918577300
Ca  3.0966356100  1.7878425900  0.6333221100
Ca  0.0000003500  3.5756851800  5.7251798400
Ca  0.0000003500  3.5756851800  9.5503933500
Ca  3.0966356100  1.7878425900  4.4585356200
12
scale = 1.05000
Li  1.6362456285  0.9446863860  8.0196759300
Li  -1.6152212895  4.6870177830  2.6732253135
Li  0.0000001470  1.8893728245  2.6732253135
Li  3.2514676005  3.7423313340  8.0196759300
Li  4.8666890475  0.9446863860  8.0196759300
Li  0.0000000000  0.0000000000  0.0000000000
Li  1.6152221295  4.6870177830  2.6732253135
Li  0.0000000000  0.0000000000  5.3464506165
Ca  3.2514673905  1.8772347195  0.6649882155
Ca  0.0000003675  3.7544694390  6.0114388320
Ca  0.0000003675  3.7544694390  10.0279130175
Ca  3.2514673905  1.8772347195  4.6814624010
12
scale = 1.10000
Li  1.7141620870  0.9896714520  8.4015652600
Li  -1.6921365890  4.9102091060  2.8005217570
Li  0.0000001540  1.9793429590  2.8005217570
Li  3.4062993910  3.9205375880  8.4015652600
Li  5.0984361450  0.9896714520  8.4015652600
Li  0.0000000000  0.0000000000  0.0000000000
Li  1.6921374690  4.9102091060  2.8005217570
Li  0.0000000000  0.0000000000  5.6010435030
Ca  3.4062991710  1.9666268490  0.6966543210
Ca  0.0000003850  3.9332536980  6.2976978240
Ca  0.0000003850  3.9332536980  10.5054326850
Ca  3.4062991710  1.9666268490  4.9043891820
12
scale = 1.15000
Li  1.7920785455  1.0346565180  8.7834545900
Li  -1.7690518885  5.1334004290  2.9278182005
Li  0.0000001610  2.0693130935  2.9278182005
Li  3.5611311815  4.0987438420  8.7834545900
Li  5.3301832425  1.0346565180  8.7834545900
Li  0.0000000000  0.0000000000  0.0000000000
Li  1.7690528085  5.1334004290  2.9278182005
Li  0.0000000000  0.0000000000  5.8556363895
Ca  3.5611309515  2.0560189785  0.7283204265
Ca  0.0000004025  4.1120379570  6.5839568160
Ca  0.0000004025  4.1120379570  10.9829523525
Ca  3.5611309515  2.0560189785  5.1273159630
12
scale = 1.20000
Li  1.8699950040  1.0796415840  9.1653439200
Li  -1.8459671880  5.3565917520  3.0551146440
Li  0.0000001680  2.1592832280  3.0551146440
Li  3.7159629720  4.2769500960  9.1653439200
Li  5.5619303400  1.0796415840  9.1653439200
Li  0.0000000000  0.0000000000  0.0000000000
Li  1.8459681480  5.3565917520  3.0551146440
Li  0.0000000000  0.0000000000  6.1102292760
Ca  3.7159627320  2.1454111080  0.7599865320
Ca  0.0000004200  4.2908222160  6.8702158080
Ca  0.0000004200  4.2908222160  11.4604720200
Ca  3.7159627320  2.1454111080  5.3502427440
12
scale = 1.25000
Li  1.9479114625  1.1246266500  9.5472332500
Li  -1.9228824875  5.5797830750  3.1824110875
Li  0.0000001750  2.2492533625  3.1824110875
Li  3.8707947625  4.4551563500  9.5472332500
Li  5.7936774375  1.1246266500  9.5472332500
Li  0.0000000000  0.0000000000  0.0000000000
Li  1.9228834875  5.5797830750  3.1824110875
Li  0.0000000000  0.0000000000  6.3648221625
Ca  3.8707945125  2.2348032375  0.7916526375
Ca  0.0000004375  4.4696064750  7.1564748000
Ca  0.0000004375  4.4696064750  11.9379916875
Ca  3.8707945125  2.2348032375  5.5731695250
12
scale = 1.30000
Li  2.0258279210  1.1696117160  9.9291225800
Li  -1.9997977870  5.8029743980  3.3097075310
Li  0.0000001820  2.3392234970  3.3097075310
Li  4.0256265530  4.6333626040  9.9291225800
Li  6.0254245350  1.1696117160  9.9291225800
Li  0.0000000000  0.0000000000  0.0000000000
Li  1.9997988270  5.8029743980  3.3097075310
Li  0.0000000000  0.0000000000  6.6194150490
Ca  4.0256262930  2.3241953670  0.8233187430
Ca  0.0000004550  4.6483907340  7.4427337920
Ca  0.0000004550  4.6483907340  12.4155113550
Ca  4.0256262930  2.3241953670  5.7960963060
12
scale = 1.35000
Li  2.1037443795  1.2145967820  10.3110119100
Li  -2.0767130865  6.0261657210  3.4370039745
Li  0.0000001890  2.4291936315  3.4370039745
Li  4.1804583435  4.8115688580  10.3110119100
Li  6.2571716325  1.2145967820  10.3110119100
Li  0.0000000000  0.0000000000  0.0000000000
Li  2.0767141665  6.0261657210  3.4370039745
Li  0.0000000000  0.0000000000  6.8740079355
Ca  4.1804580735  2.4135874965  0.8549848485
Ca  0.0000004725  4.8271749930  7.7289927840
Ca  0.0000004725  4.8271749930  12.8930310225
Ca  4.1804580735  2.4135874965  6.0190230870
12
scale = 1.40000
Li  2.1816608380  1.2595818480  10.6929012400
Li  -2.1536283860  6.2493570440  3.5643004180
Li  0.0000001960  2.5191637660  3.5643004180
Li  4.3352901340  4.9897751120  10.6929012400
Li  6.4889187300  1.2595818480  10.6929012400
Li  0.0000000000  0.0000000000  0.0000000000
Li  2.1536295060  6.2493570440  3.5643004180
Li  0.0000000000  0.0000000000  7.1286008220
Ca  4.3352898540  2.5029796260  0.8866509540
Ca  0.0000004900  5.0059592520  8.0152517760
Ca  0.0000004900  5.0059592520  13.3705506900
Ca  4.3352898540  2.5029796260  6.2419498680
12
scale = 1.45000
Li  2.2595772965  1.3045669140  11.0747905700
Li  -2.2305436855  6.4725483670  3.6915968615
Li  0.0000002030  2.6091339005  3.6915968615
Li  4.4901219245  5.1679813660  11.0747905700
Li  6.7206658275  1.3045669140  11.0747905700
Li  0.0000000000  0.0000000000  0.0000000000
Li  2.2305448455  6.4725483670  3.6915968615
Li  0.0000000000  0.0000000000  7.3831937085
Ca  4.4901216345  2.5923717555  0.9183170595
Ca  0.0000005075  5.1847435110  8.3015107680
Ca  0.0000005075  5.1847435110  13.8480703575
Ca  4.4901216345  2.5923717555  6.4648766490
12
scale = 1.50000
Li  2.3374937550  1.3495519800  11.4566799000
Li  -2.3074589850  6.6957396900  3.8188933050
Li  0.0000002100  2.6991040350  3.8188933050
Li  4.6449537150  5.3461876200  11.4566799000
Li  6.9524129250  1.3495519800  11.4566799000
Li  0.0000000000  0.0000000000  0.0000000000
Li  2.3074601850  6.6957396900  3.8188933050
Li  0.0000000000  0.0000000000  7.6377865950
Ca  4.6449534150  2.6817638850  0.9499831650
Ca  0.0000005250  5.3635277700  8.5877697600
Ca  0.0000005250  5.3635277700  14.3255900250
Ca  4.6449534150  2.6817638850  6.6878034300
12
scale = 1.55000
Li  2.4154102135  1.3945370460  11.8385692300
Li  -2.3843742845  6.9189310130  3.9461897485
Li  0.0000002170  2.7890741695  3.9461897485
Li  4.7997855055  5.5243938740  11.8385692300
Li  7.1841600225  1.3945370460  11.8385692300
Li  0.0000000000  0.0000000000  0.0000000000
Li  2.3843755245  6.9189310130  3.9461897485
Li  0.0000000000  0.0000000000  7.8923794815
Ca  4.7997851955  2.7711560145  0.9816492705
Ca  0.0000005425  5.5423120290  8.8740287520
Ca  0.0000005425  5.5423120290  14.8031096925
Ca  4.7997851955  2.7711560145  6.9107302110
12
scale = 1.60000
Li  2.4933266720  1.4395221120  12.2204585600
Li  -2.4612895840  7.1421223360  4.0734861920
Li  0.0000002240  2.8790443040  4.0734861920
Li  4.9546172960  5.7026001280  12.2204585600
Li  7.4159071200  1.4395221120  12.2204585600
Li  0.0000000000  0.0000000000  0.0000000000
Li  2.4612908640  7.1421223360  4.0734861920
Li  0.0000000000  0.0000000000  8.1469723680
Ca  4.9546169760  2.8605481440  1.0133153760
Ca  0.0000005600  5.7210962880  9.1602877440
Ca  0.0000005600  5.7210962880  15.2806293600
Ca  4.9546169760  2.8605481440  7.1336569920
12
scale = 1.65000
Li  2.5712431305  1.4845071780  12.6023478900
Li  -2.5382048835  7.3653136590  4.2007826355
Li  0.0000002310  2.9690144385  4.2007826355
Li  5.1094490865  5.8808063820  12.6023478900
Li  7.6476542175  1.4845071780  12.6023478900
Li  0.0000000000  0.0000000000  0.0000000000
Li  2.5382062035  7.3653136590  4.2007826355
Li  0.0000000000  0.0000000000  8.4015652545
Ca  5.1094487565  2.9499402735  1.0449814815
Ca  0.0000005775  5.8998805470  9.4465467360
Ca  0.0000005775  5.8998805470  15.7581490275
Ca  5.1094487565  2.9499402735  7.3565837730
12
scale = 1.70000
Li  2.6491595890  1.5294922440  12.9842372200
Li  -2.6151201830  7.5885049820  4.3280790790
Li  0.0000002380  3.0589845730  4.3280790790
Li  5.2642808770  6.0590126360  12.9842372200
Li  7.8794013150  1.5294922440  12.9842372200
Li  0.0000000000  0.0000000000  0.0000000000
Li  2.6151215430  7.5885049820  4.3280790790
Li  0.0000000000  0.0000000000  8.6561581410
Ca  5.2642805370  3.0393324030  1.0766475870
Ca  0.0000005950  6.0786648060  9.7328057280
Ca  0.0000005950  6.0786648060  16.2356686950
Ca  5.2642805370  3.0393324030  7.5795105540
12
scale = 1.75000
Li  2.7270760475  1.5744773100  13.3661265500
Li  -2.6920354825  7.8116963050  4.4553755225
Li  0.0000002450  3.1489547075  4.4553755225
Li  5.4191126675  6.2372188900  13.3661265500
Li  8.1111484125  1.5744773100  13.3661265500
Li  0.0000000000  0.0000000000  0.0000000000
Li  2.6920368825  7.8116963050  4.4553755225
Li  0.0000000000  0.0000000000  8.9107510275
Ca  5.4191123175  3.1287245325  1.1083136925
Ca  0.0000006125  6.2574490650  10.0190647200
Ca  0.0000006125  6.2574490650  16.7131883625
Ca  5.4191123175  3.1287245325  7.8024373350
12
scale = 1.80000
Li  2.8049925060  1.6194623760  13.7480158800
Li  -2.7689507820  8.0348876280  4.5826719660
Li  0.0000002520  3.2389248420  4.5826719660
Li  5.5739444580  6.4154251440  13.7480158800
Li  8.3428955100  1.6194623760  13.7480158800
Li  0.0000000000  0.0000000000  0.0000000000
Li  2.7689522220  8.0348876280  4.5826719660
Li  0.0000000000  0.0000000000  9.1653439140
Ca  5.5739440980  3.2181166620  1.1399797980
Ca  0.0000006300  6.4362333240  10.3053237120
Ca  0.0000006300  6.4362333240  17.1907080300
Ca  5.5739440980  3.2181166620  8.0253641160
12
scale = 1.85000
Li  2.8829089645  1.6644474420  14.1299052100
Li  -2.8458660815  8.2580789510  4.7099684095
Li  0.0000002590  3.3288949765  4.7099684095
Li  5.7287762485  6.5936313980  14.1299052100
Li  8.5746426075  1.6644474420  14.1299052100
Li  0.0000000000  0.0000000000  0.0000000000
Li  2.8458675615  8.2580789510  4.7099684095
Li  0.0000000000  0.0000000000  9.4199368005
Ca  5.7287758785  3.3075087915  1.1716459035
Ca  0.0000006475  6.6150175830  10.5915827040
Ca  0.0000006475  6.6150175830  17.6682276975
Ca  5.7287758785  3.3075087915  8.2482908970
12
scale = 1.90000
Li  2.9608254230  1.7094325080  14.5117945400
Li  -2.9227813810  8.4812702740  4.8372648530
Li  0.0000002660  3.4188651110  4.8372648530
Li  5.8836080390  6.7718376520  14.5117945400
Li  8.8063897050  1.7094325080  14.5117945400
Li  0.0000000000  0.0000000000  0.0000000000
Li  2.9227829010  8.4812702740  4.8372648530
Li  0.0000000000  0.0000000000  9.6745296870
Ca  5.8836076590  3.3969009210  1.2033120090
Ca  0.0000006650  6.7938018420  10.8778416960
Ca  0.0000006650  6.7938018420  18.1457473650
Ca  5.8836076590  3.3969009210  8.4712176780
12
scale = 1.95000
Li  3.0387418815  1.7544175740  14.8936838700
Li  -2.9996966805  8.7044615970  4.9645612965
Li  0.0000002730  3.5088352455  4.9645612965
Li  6.0384398295  6.9500439060  14.8936838700
Li  9.0381368025  1.7544175740  14.8936838700
Li  0.0000000000  0.0000000000  0.0000000000
Li  2.9996982405  8.7044615970  4.9645612965
Li  0.0000000000  0.0000000000  9.9291225735
Ca  6.0384394395  3.4862930505  1.2349781145
Ca  0.0000006825  6.9725861010  11.1641006880
Ca  0.0000006825  6.9725861010  18.6232670325
Ca  6.0384394395  3.4862930505  8.6941444590
12
scale = 2.00000
Li  3.1166583400  1.7994026400  15.2755732000
Li  -3.0766119800  8.9276529200  5.0918577400
Li  0.0000002800  3.5988053800  5.0918577400
Li  6.1932716200  7.1282501600  15.2755732000
Li  9.2698839000  1.7994026400  15.2755732000
Li  0.0000000000  0.0000000000  0.0000000000
Li  3.0766135800  8.9276529200  5.0918577400
Li  0.0000000000  0.0000000000  10.1837154600
Ca  6.1932712200  3.5756851800  1.2666442200
Ca  0.0000007000  7.1513703600  11.4503596800
Ca  0.0000007000  7.1513703600  19.1007867000
Ca  6.1932712200  3.5756851800  8.9170712400
12
scale = 2.05000
Li  3.1945747985  1.8443877060  15.6574625300
Li  -3.1535272795  9.1508442430  5.2191541835
Li  0.0000002870  3.6887755145  5.2191541835
Li  6.3481034105  7.3064564140  15.6574625300
Li  9.5016309975  1.8443877060  15.6574625300
Li  0.0000000000  0.0000000000  0.0000000000
Li  3.1535289195  9.1508442430  5.2191541835
Li  0.0000000000  0.0000000000  10.4383083465
Ca  6.3481030005  3.6650773095  1.2983103255
Ca  0.0000007175  7.3301546190  11.7366186720
Ca  0.0000007175  7.3301546190  19.5783063675
Ca  6.3481030005  3.6650773095  9.1399980210
12
scale = 2.10000
Li  3.2724912570  1.8893727720  16.0393518600
Li  -3.2304425790  9.3740355660  5.3464506270
Li  0.0000002940  3.7787456490  5.3464506270
Li  6.5029352010  7.4846626680  16.0393518600
Li  9.7333780950  1.8893727720  16.0393518600
Li  0.0000000000  0.0000000000  0.0000000000
Li  3.2304442590  9.3740355660  5.3464506270
Li  0.0000000000  0.0000000000  10.6929012330
Ca  6.5029347810  3.7544694390  1.3299764310
Ca  0.0000007350  7.5089388780  12.0228776640
Ca  0.0000007350  7.5089388780  20.0558260350
Ca  6.5029347810  3.7544694390  9.3629248020
12
scale = 2.15000
Li  3.3504077155  1.9343578380  16.4212411900
Li  -3.3073578785  9.5972268890  5.4737470705
Li  0.0000003010  3.8687157835  5.4737470705
Li  6.6577669915  7.6628689220  16.4212411900
Li  9.9651251925  1.9343578380  16.4212411900
Li  0.0000000000  0.0000000000  0.0000000000
Li  3.3073595985  9.5972268890  5.4737470705
Li  0.0000000000  0.0000000000  10.9474941195
Ca  6.6577665615  3.8438615685  1.3616425365
Ca  0.0000007525  7.6877231370  12.3091366560
Ca  0.0000007525  7.6877231370  20.5333457025
Ca  6.6577665615  3.8438615685  9.5858515830
12
scale = 2.20000
Li  3.4283241740  1.9793429040  16.8031305200
Li  -3.3842731780  9.8204182120  5.6010435140
Li  0.0000003080  3.9586859180  5.6010435140
Li  6.8125987820  7.8410751760  16.8031305200
Li  10.1968722900  1.9793429040  16.8031305200
Li  0.0000000000  0.0000000000  0.0000000000
Li  3.3842749380  9.8204182120  5.6010435140
Li  0.0000000000  0.0000000000  11.2020870060
Ca  6.8125983420  3.9332536980  1.3933086420
Ca  0.0000007700  7.8665073960  12.5953956480
Ca  0.0000007700  7.8665073960  21.0108653700
Ca  6.8125983420  3.9332536980  9.8087783640
12
scale = 2.25000
Li  3.5062406325  2.0243279700  17.1850198500
Li  -3.4611884775  10.0436095350  5.7283399575
Li  0.0000003150  4.0486560525  5.7283399575
Li  6.9674305725  8.0192814300  17.1850198500
Li  10.4286193875  2.0243279700  17.1850198500
Li  0.0000000000  0.0000000000  0.0000000000
Li  3.4611902775  10.0436095350  5.7283399575
Li  0.0000000000  0.0000000000  11.4566798925
Ca  6.9674301225  4.0226458275  1.4249747475
Ca  0.0000007875  8.0452916550  12.8816546400
Ca  0.0000007875  8.0452916550  21.4883850375
Ca  6.9674301225  4.0226458275  10.0317051450
12
scale = 2.30000
Li  3.5841570910  2.0693130360  17.5669091800
Li  -3.5381037770  10.2668008580  5.8556364010
Li  0.0000003220  4.1386261870  5.8556364010
Li  7.1222623630  8.1974876840  17.5669091800
Li  10.6603664850  2.0693130360  17.5669091800
Li  0.0000000000  0.0000000000  0.0000000000
Li  3.5381056170  10.2668008580  5.8556364010
Li  0.0000000000  0.0000000000  11.7112727790
Ca  7.1222619030  4.1120379570  1.4566408530
Ca  0.0000008050  8.2240759140  13.1679136320
Ca  0.0000008050  8.2240759140  21.9659047050
Ca  7.1222619030  4.1120379570  10.2546319260
12
scale = 2.35000
Li  3.6620735495  2.1142981020  17.9487985100
Li  -3.6150190765  10.4899921810  5.9829328445
Li  0.0000003290  4.2285963215  5.9829328445
Li  7.2770941535  8.3756939380  17.9487985100
Li  10.8921135825  2.1142981020  17.9487985100
Li  0.0000000000  0.0000000000  0.0000000000
Li  3.6150209565  10.4899921810  5.9829328445
Li  0.0000000000  0.0000000000  11.9658656655
Ca  7.2770936835  4.2014300865  1.4883069585
Ca  0.0000008225  8.4028601730  13.4541726240
Ca  0.0000008225  8.4028601730  22.4434243725
Ca  7.2770936835  4.2014300865  10.4775587070
12
scale = 2.40000
Li  3.7399900080  2.1592831680  18.3306878400
Li  -3.6919343760  10.7131835040  6.1102292880
Li  0.0000003360  4.3185664560  6.1102292880
Li  7.4319259440  8.5539001920  18.3306878400
Li  11.1238606800  2.1592831680  18.3306878400
Li  0.0000000000  0.0000000000  0.0000000000
Li  3.6919362960  10.7131835040  6.1102292880
Li  0.0000000000  0.0000000000  12.2204585520
Ca  7.4319254640  4.2908222160  1.5199730640
Ca  0.0000008400  8.5816444320  13.7404316160
Ca  0.0000008400  8.5816444320  22.9209440400
Ca  7.4319254640  4.2908222160  10.7004854880
12
scale = 2.45000
Li  3.8179064665  2.2042682340  18.7125771700
Li  -3.7688496755  10.9363748270  6.2375257315
Li  0.0000003430  4.4085365905  6.2375257315
Li  7.5867577345  8.7321064460  18.7125771700
Li  11.3556077775  2.2042682340  18.7125771700
Li  0.0000000000  0.0000000000  0.0000000000
Li  3.7688516355  10.9363748270  6.2375257315
Li  0.0000000000  0.0000000000  12.4750514385
Ca  7.5867572445  4.3802143455  1.5516391695
Ca  0.0000008575  8.7604286910  14.0266906080
Ca  0.0000008575  8.7604286910  23.3984637075
Ca  7.5867572445  4.3802143455  10.9234122690
