3
scale = 0.75000
Li  0.7947911400  0.5620022100  1.3766186400
Li  2.3843734275  1.6860066225  4.1298559200
C   0.0000000000  0.0000000000  0.0000000000
3
scale = 0.80000
Li  0.8477772160  0.5994690240  1.4683932160
Li  2.5433316560  1.7984070640  4.4051796480
C   0.0000000000  0.0000000000  0.0000000000
3
scale = 0.85000
Li  0.9007632920  0.6369358380  1.5601677920
Li  2.7022898845  1.9108075055  4.6805033760
C   0.0000000000  0.0000000000  0.0000000000
3
scale = 0.90000
Li  0.9537493680  0.6744026520  1.6519423680
Li  2.8612481130  2.0232079470  4.9558271040
C   0.0000000000  0.0000000000  0.0000000000
3
scale = 0.95000
Li  1.0067354440  0.7118694660  1.7437169440
Li  3.0202063415  2.1356083885  5.2311508320
C   0.0000000000  0.0000000000  0.0000000000
3
scale = 1.00000
Li  1.0597215200  0.7493362800  1.8354915200
Li  3.1791645700  2.2480088300  5.5064745600
C   0.0000000000  0.0000000000  0.0000000000
3
scale = 1.05000
Li  1.1127075960  0.7868030940  1.9272660960
Li  3.3381227985  2.3604092715  5.7817982880
C   0.0000000000  0.0000000000  0.0000000000
3
scale = 1.10000
Li  1.1656936720  0.8242699080  2.0190406720
Li  3.4970810270  2.4728097130  6.0571220160
C   0.0000000000  0.0000000000  0.0000000000
3
scale = 1.15000
Li  1.2186797480  0.8617367220  2.1108152480
Li  3.6560392555  2.5852101545  6.3324457440
C   0.0000000000  0.0000000000  0.0000000000
3
scale = 1.20000
Li  1.2716658240  0.8992035360  2.2025898240
Li  3.8149974840  2.6976105960  6.6077694720
C   0.0000000000  0.0000000000  0.0000000000
3
scale = 1.25000
Li  1.3246519000  0.9366703500  2.2943644000
Li  3.9739557125  2.8100110375  6.8830932000
C   0.0000000000  0.0000000000  0.0000000000
3
scale = 1.30000
Li  1.3776379760  0.9741371640  2.3861389760
Li  4.1329139410  2.9224114790  7.1584169280
C   0.0000000000  0.0000000000  0.0000000000
3
scale = 1.35000
Li  1.4306240520  1.0116039780  2.4779135520
Li  4.2918721695  3.0348119205  7.4337406560
C   0.0000000000  0.0000000000  0.0000000000
3
scale = 1.40000
Li  1.4836101280  1.0490707920  2.5696881280
Li  4.4508303980  3.1472123620  7.7090643840
C   0.0000000000  0.0000000000  0.0000000000
3
scale = 1.45000
Li  1.5365962040  1.0865376060  2.6614627040
Li  4.6097886265  3.2596128035  7.9843881120
C   0.0000000000  0.0000000000  0.0000000000
3
scale = 1.50000
Li  1.5895822800  1.1240044200  2.7532372800
Li  4.7687468550  3.3720132450  8.2597118400
C   0.0000000000  0.0000000000  0.0000000000
3
scale = 1.55000
Li  1.6425683560  1.1614712340  2.8450118560
Li  4.9277050835  3.4844136865  8.5350355680
C   0.0000000000  0.0000000000  0.0000000000
3
scale = 1.60000
Li  1.6955544320  1.1989380480  2.9367864320
Li  5.0866633120  3.5968141280  8.8103592960
C   0.0000000000  0.0000000000  0.0000000000
3
scale = 1.65000
Li  1.7485405080  1.2364048620  3.0285610080
Li  5.2456215405  3.7092145695  9.0856830240
C   0.0000000000  0.0000000000  0.0000000000
3
scale = 1.70000
Li  1.8015265840  1.2738716760  3.1203355840
Li  5.4045797690  3.8216150110  9.3610067520
C   0.0000000000  0.0000000000  0.0000000000
3
scale = 1.75000
Li  1.8545126600  1.3113384900  3.2121101600
Li  5.5635379975  3.9340154525  9.6363304800
C   0.0000000000  0.0000000000  0.0000000000
3
scale = 1.80000
Li  1.9074987360  1.3488053040  3.3038847360
Li  5.7224962260  4.0464158940  9.9116542080
C   0.0000000000  0.0000000000  0.0000000000
3
scale = 1.85000
Li  1.9604848120  1.3862721180  3.3956593120
Li  5.8814544545  4.1588163355  10.1869779360
C   0.0000000000  0.0000000000  0.0000000000
3
scale = 1.90000
Li  2.0134708880  1.4237389320  3.4874338880
Li  6.0404126830  4.2712167770  10.4623016640
C   0.0000000000  0.0000000000  0.0000000000
3
scale = 1.95000
Li  2.0664569640  1.4612057460  3.5792084640
Li  6.1993709115  4.3836172185  10.7376253920
C   0.0000000000  0.0000000000  0.0000000000
3
scale = 2.00000
Li  2.1194430400  1.4986725600  3.6709830400
Li  6.3583291400  4.4960176600  11.0129491200
C   0.0000000000  0.0000000000  0.0000000000
3
scale = 2.05000
Li  2.1724291160  1.5361393740  3.7627576160
Li  6.5172873685  4.6084181015  11.2882728480
C   0.0000000000  0.0000000000  0.0000000000
3
scale = 2.10000
Li  2.2254151920  1.5736061880  3.8545321920
Li  6.6762455970  4.7208185430  11.5635965760
C   0.0000000000  0.0000000000  0.0000000000
3
scale = 2.15000
Li  2.2784012680  1.6110730020  3.9463067680
Li  6.8352038255  4.8332189845  11.8389203040
C   0.0000000000  0.0000000000  0.0000000000
3
scale = 2.20000
Li  2.3313873440  1.6485398160  4.0380813440
Li  6.9941620540  4.9456194260  12.1142440320
C   0.0000000000  0.0000000000  0.0000000000
3
scale = 2.25000
Li  2.3843734200  1.6860066300  4.1298559200
Li  7.1531202825  5.0580198675  12.3895677600
C   0.0000000000  0.0000000000  0.0000000000
3
scale = 2.30000
Li  2.4373594960  1.7234734440  4.2216304960
Li  7.3120785110  5.1704203090  12.6648914880
C   0.0000000000  0.0000000000  0.0000000000
3
scale = 2.35000
Li  2.4903455720  1.7609402580  4.3134050720
Li  7.4710367395  5.2828207505  12.9402152160
C   0.0000000000  0.0000000000  0.0000000000
3
scale = 2.40000
Li  2.5433316480  1.7984070720  4.4051796480
Li  7.6299949680  5.3952211920  13.2155389440
C   0.0000000000  0.0000000000  0.0000000000
3
scale = 2.45000
Li  2.5963177240  1.8358738860  4.4969542240
Li  7.7889531965  5.5076216335  13.4908626720
C   0.0000000000  0.0000000000  0.0000000000
