18
scale = 0.75000
Li  2.8434548850  0.5857378350  1.8877093875
Li  5.7804547500  4.4211695175  6.1071409500
Li  5.2348463625  2.3866235325  7.5602893875
Li  3.5598226200  4.4076762150  7.5077593725
Ga  4.6067869575  3.4878454800  3.7676562300
Ga  3.9178151625  0.9187046100  5.6026322175
Ga  1.9072966200  3.5157014100  5.6384422875
Ga  1.9241029575  1.4947413675  5.6432460375
Ga  2.6088805425  4.0482422175  3.8194407300
Ga  4.6217273100  1.4867786775  3.8169332925
Ga  3.1714635900  2.4446184375  2.8722186225
Ga  2.7498366525  0.8723929950  3.9951605175
Ga  1.5386779200  2.4344974500  3.9862498350
Ga  3.3125694075  2.5267948125  6.5490398100
Ga  3.7405578150  4.1227418700  5.4091550550
Ga  4.9501185825  2.5475445900  5.4254064975
Ga  0.5030700300  0.3953858100  0.7424635200
Ga  6.0164963475  4.5886366950  8.6835186900
18
scale = 0.80000
Li  3.0330185440  0.6247870240  2.0135566800
Li  6.1658184000  4.7159141520  6.5142836800
Li  5.5838361200  2.5457317680  8.0643086800
Li  3.7971441280  4.7015212960  8.0082766640
Ga  4.9139060880  3.7203685120  4.0188333120
Ga  4.1790028400  0.9799515840  5.9761410320
Ga  2.0344497280  3.7500815040  6.0143384400
Ga  2.0523764880  1.5943907920  6.0194624400
Ga  2.7828059120  4.3181250320  4.0740701120
Ga  4.9298424640  1.5858972560  4.0713955120
Ga  3.3828944960  2.6075930000  3.0636998640
Ga  2.9331590960  0.9305525280  4.2615045520
Ga  1.6412564480  2.5967972800  4.2519998240
Ga  3.5334073680  2.6952478000  6.9856424640
Ga  3.9899283360  4.3975913280  5.7697653920
Ga  5.2801264880  2.7173808960  5.7871002640
Ga  0.5366080320  0.4217448640  0.7919610880
Ga  6.4175961040  4.8945458080  9.2624199360
18
scale = 0.85000
Li  3.2225822030  0.6638362130  2.1394039725
Li  6.5511820500  5.0106587865  6.9214264100
Li  5.9328258775  2.7048400035  8.5683279725
Li  4.0344656360  4.9953663770  8.5087939555
Ga  5.2210252185  3.9528915440  4.2700103940
Ga  4.4401905175  1.0411985580  6.3496498465
Ga  2.1616028360  3.9844615980  6.3902345925
Ga  2.1806500185  1.6940402165  6.3956788425
Ga  2.9567312815  4.5880078465  4.3286994940
Ga  5.2379576180  1.6850158345  4.3258577315
Ga  3.5943254020  2.7705675625  3.2551811055
Ga  3.1164815395  0.9887120610  4.5278485865
Ga  1.7438349760  2.7590971100  4.5177498130
Ga  3.7542453285  2.8637007875  7.4222451180
Ga  4.2392988570  4.6724407860  6.1303757290
Ga  5.6101343935  2.8872172020  6.1487940305
Ga  0.5701460340  0.4481039180  0.8414586560
Ga  6.8186958605  5.2004549210  9.8413211820
18
scale = 0.90000
Li  3.4121458620  0.7028854020  2.2652512650
Li  6.9365457000  5.3054034210  7.3285691400
Li  6.2818156350  2.8639482390  9.0723472650
Li  4.2717871440  5.2892114580  9.0093112470
Ga  5.5281443490  4.1854145760  4.5211874760
Ga  4.7013781950  1.1024455320  6.7231586610
Ga  2.2887559440  4.2188416920  6.7661307450
Ga  2.3089235490  1.7936896410  6.7718952450
Ga  3.1306566510  4.8578906610  4.5833288760
Ga  5.5460727720  1.7841344130  4.5803199510
Ga  3.8057563080  2.9335421250  3.4466623470
Ga  3.2998039830  1.0468715940  4.7941926210
Ga  1.8464135040  2.9213969400  4.7834998020
Ga  3.9750832890  3.0321537750  7.8588477720
Ga  4.4886693780  4.9472902440  6.4909860660
Ga  5.9401422990  3.0570535080  6.5104877970
Ga  0.6036840360  0.4744629720  0.8909562240
Ga  7.2197956170  5.5063640340  10.4202224280
18
scale = 0.95000
Li  3.6017095210  0.7419345910  2.3910985575
Li  7.3219093500  5.6001480555  7.7357118700
Li  6.6308053925  3.0230564745  9.5763665575
Li  4.5091086520  5.5830565390  9.5098285385
Ga  5.8352634795  4.4179376080  4.7723645580
Ga  4.9625658725  1.1636925060  7.0966674755
Ga  2.4159090520  4.4532217860  7.1420268975
Ga  2.4371970795  1.8933390655  7.1481116475
Ga  3.3045820205  5.1277734755  4.8379582580
Ga  5.8541879260  1.8832529915  4.8347821705
Ga  4.0171872140  3.0965166875  3.6381435885
Ga  3.4831264265  1.1050311270  5.0605366555
Ga  1.9489920320  3.0836967700  5.0492497910
Ga  4.1959212495  3.2006067625  8.2954504260
Ga  4.7380398990  5.2221397020  6.8515964030
Ga  6.2701502045  3.2268898140  6.8721815635
Ga  0.6372220380  0.5008220260  0.9404537920
Ga  7.6208953735  5.8122731470  10.9991236740
18
scale = 1.00000
Li  3.7912731800  0.7809837800  2.5169458500
Li  7.7072730000  5.8948926900  8.1428546000
Li  6.9797951500  3.1821647100  10.0803858500
Li  4.7464301600  5.8769016200  10.0103458300
Ga  6.1423826100  4.6504606400  5.0235416400
Ga  5.2237535500  1.2249394800  7.4701762900
Ga  2.5430621600  4.6876018800  7.5179230500
Ga  2.5654706100  1.9929884900  7.5243280500
Ga  3.4785073900  5.3976562900  5.0925876400
Ga  6.1623030800  1.9823715700  5.0892443900
Ga  4.2286181200  3.2594912500  3.8296248300
Ga  3.6664488700  1.1631906600  5.3268806900
Ga  2.0515705600  3.2459966000  5.3149997800
Ga  4.4167592100  3.3690597500  8.7320530800
Ga  4.9874104200  5.4969891600  7.2122067400
Ga  6.6001581100  3.3967261200  7.2338753300
Ga  0.6707600400  0.5271810800  0.9899513600
Ga  8.0219951300  6.1181822600  11.5780249200
18
scale = 1.05000
Li  3.9808368390  0.8200329690  2.6427931425
Li  8.0926366500  6.1896373245  8.5499973300
Li  7.3287849075  3.3412729455  10.5844051425
Li  4.9837516680  6.1707467010  10.5108631215
Ga  6.4495017405  4.8829836720  5.2747187220
Ga  5.4849412275  1.2861864540  7.8436851045
Ga  2.6702152680  4.9219819740  7.8938192025
Ga  2.6937441405  2.0926379145  7.9005444525
Ga  3.6524327595  5.6675391045  5.3472170220
Ga  6.4704182340  2.0814901485  5.3437066095
Ga  4.4400490260  3.4224658125  4.0211060715
Ga  3.8497713135  1.2213501930  5.5932247245
Ga  2.1541490880  3.4082964300  5.5807497690
Ga  4.6375971705  3.5375127375  9.1686557340
Ga  5.2367809410  5.7718386180  7.5728170770
Ga  6.9301660155  3.5665624260  7.5955690965
Ga  0.7042980420  0.5535401340  1.0394489280
Ga  8.4230948865  6.4240913730  12.1569261660
18
scale = 1.10000
Li  4.1704004980  0.8590821580  2.7686404350
Li  8.4780003000  6.4843819590  8.9571400600
Li  7.6777746650  3.5003811810  11.0884244350
Li  5.2210731760  6.4645917820  11.0113804130
Ga  6.7566208710  5.1155067040  5.5258958040
Ga  5.7461289050  1.3474334280  8.2171939190
Ga  2.7973683760  5.1563620680  8.2697153550
Ga  2.8220176710  2.1922873390  8.2767608550
Ga  3.8263581290  5.9374219190  5.6018464040
Ga  6.7785333880  2.1806087270  5.5981688290
Ga  4.6514799320  3.5854403750  4.2125873130
Ga  4.0330937570  1.2795097260  5.8595687590
Ga  2.2567276160  3.5705962600  5.8464997580
Ga  4.8584351310  3.7059657250  9.6052583880
Ga  5.4861514620  6.0466880760  7.9334274140
Ga  7.2601739210  3.7363987320  7.9572628630
Ga  0.7378360440  0.5798991880  1.0889464960
Ga  8.8241946430  6.7300004860  12.7358274120
18
scale = 1.15000
Li  4.3599641570  0.8981313470  2.8944877275
Li  8.8633639500  6.7791265935  9.3642827900
Li  8.0267644225  3.6594894165  11.5924437275
Li  5.4583946840  6.7584368630  11.5118977045
Ga  7.0637400015  5.3480297360  5.7770728860
Ga  6.0073165825  1.4086804020  8.5907027335
Ga  2.9245214840  5.3907421620  8.6456115075
Ga  2.9502912015  2.2919367635  8.6529772575
Ga  4.0002834985  6.2073047335  5.8564757860
Ga  7.0866485420  2.2797273055  5.8526310485
Ga  4.8629108380  3.7484149375  4.4040685545
Ga  4.2164162005  1.3376692590  6.1259127935
Ga  2.3593061440  3.7328960900  6.1122497470
Ga  5.0792730915  3.8744187125  10.0418610420
Ga  5.7355219830  6.3215375340  8.2940377510
Ga  7.5901818265  3.9062350380  8.3189566295
Ga  0.7713740460  0.6062582420  1.1384440640
Ga  9.2252943995  7.0359095990  13.3147286580
18
scale = 1.20000
Li  4.5495278160  0.9371805360  3.0203350200
Li  9.2487276000  7.0738712280  9.7714255200
Li  8.3757541800  3.8185976520  12.0964630200
Li  5.6957161920  7.0522819440  12.0124149960
Ga  7.3708591320  5.5805527680  6.0282499680
Ga  6.2685042600  1.4699273760  8.9642115480
Ga  3.0516745920  5.6251222560  9.0215076600
Ga  3.0785647320  2.3915861880  9.0291936600
Ga  4.1742088680  6.4771875480  6.1111051680
Ga  7.3947636960  2.3788458840  6.1070932680
Ga  5.0743417440  3.9113895000  4.5955497960
Ga  4.3997386440  1.3958287920  6.3922568280
Ga  2.4618846720  3.8951959200  6.3779997360
Ga  5.3001110520  4.0428717000  10.4784636960
Ga  5.9848925040  6.5963869920  8.6546480880
Ga  7.9201897320  4.0760713440  8.6806503960
Ga  0.8049120480  0.6326172960  1.1879416320
Ga  9.6263941560  7.3418187120  13.8936299040
18
scale = 1.25000
Li  4.7390914750  0.9762297250  3.1461823125
Li  9.6340912500  7.3686158625  10.1785682500
Li  8.7247439375  3.9777058875  12.6004823125
Li  5.9330377000  7.3461270250  12.5129322875
Ga  7.6779782625  5.8130758000  6.2794270500
Ga  6.5296919375  1.5311743500  9.3377203625
Ga  3.1788277000  5.8595023500  9.3974038125
Ga  3.2068382625  2.4912356125  9.4054100625
Ga  4.3481342375  6.7470703625  6.3657345500
Ga  7.7028788500  2.4779644625  6.3615554875
Ga  5.2857726500  4.0743640625  4.7870310375
Ga  4.5830610875  1.4539883250  6.6586008625
Ga  2.5644632000  4.0574957500  6.6437497250
Ga  5.5209490125  4.2113246875  10.9150663500
Ga  6.2342630250  6.8712364500  9.0152584250
Ga  8.2501976375  4.2459076500  9.0423441625
Ga  0.8384500500  0.6589763500  1.2374392000
Ga  10.0274939125  7.6477278250  14.4725311500
18
scale = 1.30000
Li  4.9286551340  1.0152789140  3.2720296050
Li  10.0194549000  7.6633604970  10.5857109800
Li  9.0737336950  4.1368141230  13.1045016050
Li  6.1703592080  7.6399721060  13.0134495790
Ga  7.9850973930  6.0455988320  6.5306041320
Ga  6.7908796150  1.5924213240  9.7112291770
Ga  3.3059808080  6.0938824440  9.7732999650
Ga  3.3351117930  2.5908850370  9.7816264650
Ga  4.5220596070  7.0169531770  6.6203639320
Ga  8.0109940040  2.5770830410  6.6160177070
Ga  5.4972035560  4.2373386250  4.9785122790
Ga  4.7663835310  1.5121478580  6.9249448970
Ga  2.6670417280  4.2197955800  6.9094997140
Ga  5.7417869730  4.3797776750  11.3516690040
Ga  6.4836335460  7.1460859080  9.3758687620
Ga  8.5802055430  4.4157439560  9.4040379290
Ga  0.8719880520  0.6853354040  1.2869367680
Ga  10.4285936690  7.9536369380  15.0514323960
18
scale = 1.35000
Li  5.1182187930  1.0543281030  3.3978768975
Li  10.4048185500  7.9581051315  10.9928537100
Li  9.4227234525  4.2959223585  13.6085208975
Li  6.4076807160  7.9338171870  13.5139668705
Ga  8.2922165235  6.2781218640  6.7817812140
Ga  7.0520672925  1.6536682980  10.0847379915
Ga  3.4331339160  6.3282625380  10.1491961175
Ga  3.4633853235  2.6905344615  10.1578428675
Ga  4.6959849765  7.2868359915  6.8749933140
Ga  8.3191091580  2.6762016195  6.8704799265
Ga  5.7086344620  4.4003131875  5.1699935205
Ga  4.9497059745  1.5703073910  7.1912889315
Ga  2.7696202560  4.3820954100  7.1752497030
Ga  5.9626249335  4.5482306625  11.7882716580
Ga  6.7330040670  7.4209353660  9.7364790990
Ga  8.9102134485  4.5855802620  9.7657316955
Ga  0.9055260540  0.7116944580  1.3364343360
Ga  10.8296934255  8.2595460510  15.6303336420
18
scale = 1.40000
Li  5.3077824520  1.0933772920  3.5237241900
Li  10.7901822000  8.2528497660  11.3999964400
Li  9.7717132100  4.4550305940  14.1125401900
Li  6.6450022240  8.2276622680  14.0144841620
Ga  8.5993356540  6.5106448960  7.0329582960
Ga  7.3132549700  1.7149152720  10.4582468060
Ga  3.5602870240  6.5626426320  10.5250922700
Ga  3.5916588540  2.7901838860  10.5340592700
Ga  4.8699103460  7.5567188060  7.1296226960
Ga  8.6272243120  2.7753201980  7.1249421460
Ga  5.9200653680  4.5632877500  5.3614747620
Ga  5.1330284180  1.6284669240  7.4576329660
Ga  2.8721987840  4.5443952400  7.4409996920
Ga  6.1834628940  4.7166836500  12.2248743120
Ga  6.9823745880  7.6957848240  10.0970894360
Ga  9.2402213540  4.7554165680  10.1274254620
Ga  0.9390640560  0.7380535120  1.3859319040
Ga  11.2307931820  8.5654551640  16.2092348880
18
scale = 1.45000
Li  5.4973461110  1.1324264810  3.6495714825
Li  11.1755458500  8.5475944005  11.8071391700
Li  10.1207029675  4.6141388295  14.6165594825
Li  6.8823237320  8.5215073490  14.5150014535
Ga  8.9064547845  6.7431679280  7.2841353780
Ga  7.5744426475  1.7761622460  10.8317556205
Ga  3.6874401320  6.7970227260  10.9009884225
Ga  3.7199323845  2.8898333105  10.9102756725
Ga  5.0438357155  7.8266016205  7.3842520780
Ga  8.9353394660  2.8744387765  7.3794043655
Ga  6.1314962740  4.7262623125  5.5529560035
Ga  5.3163508615  1.6866264570  7.7239770005
Ga  2.9747773120  4.7066950700  7.7067496810
Ga  6.4043008545  4.8851366375  12.6614769660
Ga  7.2317451090  7.9706342820  10.4576997730
Ga  9.5702292595  4.9252528740  10.4891192285
Ga  0.9726020580  0.7644125660  1.4354294720
Ga  11.6318929385  8.8713642770  16.7881361340
18
scale = 1.50000
Li  5.6869097700  1.1714756700  3.7754187750
Li  11.5609095000  8.8423390350  12.2142819000
Li  10.4696927250  4.7732470650  15.1205787750
Li  7.1196452400  8.8153524300  15.0155187450
Ga  9.2135739150  6.9756909600  7.5353124600
Ga  7.8356303250  1.8374092200  11.2052644350
Ga  3.8145932400  7.0314028200  11.2768845750
Ga  3.8482059150  2.9894827350  11.2864920750
Ga  5.2177610850  8.0964844350  7.6388814600
Ga  9.2434546200  2.9735573550  7.6338665850
Ga  6.3429271800  4.8892368750  5.7444372450
Ga  5.4996733050  1.7447859900  7.9903210350
Ga  3.0773558400  4.8689949000  7.9724996700
Ga  6.6251388150  5.0535896250  13.0980796200
Ga  7.4811156300  8.2454837400  10.8183101100
Ga  9.9002371650  5.0950891800  10.8508129950
Ga  1.0061400600  0.7907716200  1.4849270400
Ga  12.0329926950  9.1772733900  17.3670373800
18
scale = 1.55000
Li  5.8764734290  1.2105248590  3.9012660675
Li  11.9462731500  9.1370836695  12.6214246300
Li  10.8186824825  4.9323553005  15.6245980675
Li  7.3569667480  9.1091975110  15.5160360365
Ga  9.5206930455  7.2082139920  7.7864895420
Ga  8.0968180025  1.8986561940  11.5787732495
Ga  3.9417463480  7.2657829140  11.6527807275
Ga  3.9764794455  3.0891321595  11.6627084775
Ga  5.3916864545  8.3663672495  7.8935108420
Ga  9.5515697740  3.0726759335  7.8883288045
Ga  6.5543580860  5.0522114375  5.9359184865
Ga  5.6829957485  1.8029455230  8.2566650695
Ga  3.1799343680  5.0312947300  8.2382496590
Ga  6.8459767755  5.2220426125  13.5346822740
Ga  7.7304861510  8.5203331980  11.1789204470
Ga  10.2302450705  5.2649254860  11.2125067615
Ga  1.0396780620  0.8171306740  1.5344246080
Ga  12.4340924515  9.4831825030  17.9459386260
18
scale = 1.60000
Li  6.0660370880  1.2495740480  4.0271133600
Li  12.3316368000  9.4318283040  13.0285673600
Li  11.1676722400  5.0914635360  16.1286173600
Li  7.5942882560  9.4030425920  16.0165533280
Ga  9.8278121760  7.4407370240  8.0376666240
Ga  8.3580056800  1.9599031680  11.9522820640
Ga  4.0688994560  7.5001630080  12.0286768800
Ga  4.1047529760  3.1887815840  12.0389248800
Ga  5.5656118240  8.6362500640  8.1481402240
Ga  9.8596849280  3.1717945120  8.1427910240
Ga  6.7657889920  5.2151860000  6.1273997280
Ga  5.8663181920  1.8611050560  8.5230091040
Ga  3.2825128960  5.1935945600  8.5039996480
Ga  7.0668147360  5.3904956000  13.9712849280
Ga  7.9798566720  8.7951826560  11.5395307840
Ga  10.5602529760  5.4347617920  11.5742005280
Ga  1.0732160640  0.8434897280  1.5839221760
Ga  12.8351922080  9.7890916160  18.5248398720
18
scale = 1.65000
Li  6.2556007470  1.2886232370  4.1529606525
Li  12.7170004500  9.7265729385  13.4357100900
Li  11.5166619975  5.2505717715  16.6326366525
Li  7.8316097640  9.6968876730  16.5170706195
Ga  10.1349313065  7.6732600560  8.2888437060
Ga  8.6191933575  2.0211501420  12.3257908785
Ga  4.1960525640  7.7345431020  12.4045730325
Ga  4.2330265065  3.2884310085  12.4151412825
Ga  5.7395371935  8.9061328785  8.4027696060
Ga  10.1678000820  3.2709130905  8.3972532435
Ga  6.9772198980  5.3781605625  6.3188809695
Ga  6.0496406355  1.9192645890  8.7893531385
Ga  3.3850914240  5.3558943900  8.7697496370
Ga  7.2876526965  5.5589485875  14.4078875820
Ga  8.2292271930  9.0700321140  11.9001411210
Ga  10.8902608815  5.6045980980  11.9358942945
Ga  1.1067540660  0.8698487820  1.6334197440
Ga  13.2362919645  10.0950007290  19.1037411180
18
scale = 1.70000
Li  6.4451644060  1.3276724260  4.2788079450
Li  13.1023641000  10.0213175730  13.8428528200
Li  11.8656517550  5.4096800070  17.1366559450
Li  8.0689312720  9.9907327540  17.0175879110
Ga  10.4420504370  7.9057830880  8.5400207880
Ga  8.8803810350  2.0823971160  12.6992996930
Ga  4.3232056720  7.9689231960  12.7804691850
Ga  4.3613000370  3.3880804330  12.7913576850
Ga  5.9134625630  9.1760156930  8.6573989880
Ga  10.4759152360  3.3700316690  8.6517154630
Ga  7.1886508040  5.5411351250  6.5103622110
Ga  6.2329630790  1.9774241220  9.0556971730
Ga  3.4876699520  5.5181942200  9.0354996260
Ga  7.5084906570  5.7274015750  14.8444902360
Ga  8.4785977140  9.3448815720  12.2607514580
Ga  11.2202687870  5.7744344040  12.2975880610
Ga  1.1402920680  0.8962078360  1.6829173120
Ga  13.6373917210  10.4009098420  19.6826423640
18
scale = 1.75000
Li  6.6347280650  1.3667216150  4.4046552375
Li  13.4877277500  10.3160622075  14.2499955500
Li  12.2146415125  5.5687882425  17.6406752375
Li  8.3062527800  10.2845778350  17.5181052025
Ga  10.7491695675  8.1383061200  8.7911978700
Ga  9.1415687125  2.1436440900  13.0728085075
Ga  4.4503587800  8.2033032900  13.1563653375
Ga  4.4895735675  3.4877298575  13.1675740875
Ga  6.0873879325  9.4458985075  8.9120283700
Ga  10.7840303900  3.4691502475  8.9061776825
Ga  7.4000817100  5.7041096875  6.7018434525
Ga  6.4162855225  2.0355836550  9.3220412075
Ga  3.5902484800  5.6804940500  9.3012496150
Ga  7.7293286175  5.8958545625  15.2810928900
Ga  8.7279682350  9.6197310300  12.6213617950
Ga  11.5502766925  5.9442707100  12.6592818275
Ga  1.1738300700  0.9225668900  1.7324148800
Ga  14.0384914775  10.7068189550  20.2615436100
18
scale = 1.80000
Li  6.8242917240  1.4057708040  4.5305025300
Li  13.8730914000  10.6108068420  14.6571382800
Li  12.5636312700  5.7278964780  18.1446945300
Li  8.5435742880  10.5784229160  18.0186224940
Ga  11.0562886980  8.3708291520  9.0423749520
Ga  9.4027563900  2.2048910640  13.4463173220
Ga  4.5775118880  8.4376833840  13.5322614900
Ga  4.6178470980  3.5873792820  13.5437904900
Ga  6.2613133020  9.7157813220  9.1666577520
Ga  11.0921455440  3.5682688260  9.1606399020
Ga  7.6115126160  5.8670842500  6.8933246940
Ga  6.5996079660  2.0937431880  9.5883852420
Ga  3.6928270080  5.8427938800  9.5669996040
Ga  7.9501665780  6.0643075500  15.7176955440
Ga  8.9773387560  9.8945804880  12.9819721320
Ga  11.8802845980  6.1141070160  13.0209755940
Ga  1.2073680720  0.9489259440  1.7819124480
Ga  14.4395912340  11.0127280680  20.8404448560
18
scale = 1.85000
Li  7.0138553830  1.4448199930  4.6563498225
Li  14.2584550500  10.9055514765  15.0642810100
Li  12.9126210275  5.8870047135  18.6487138225
Li  8.7808957960  10.8722679970  18.5191397855
Ga  11.3634078285  8.6033521840  9.2935520340
Ga  9.6639440675  2.2661380380  13.8198261365
Ga  4.7046649960  8.6720634780  13.9081576425
Ga  4.7461206285  3.6870287065  13.9200068925
Ga  6.4352386715  9.9856641365  9.4212871340
Ga  11.4002606980  3.6673874045  9.4151021215
Ga  7.8229435220  6.0300588125  7.0848059355
Ga  6.7829304095  2.1519027210  9.8547292765
Ga  3.7954055360  6.0050937100  9.8327495930
Ga  8.1710045385  6.2327605375  16.1542981980
Ga  9.2267092770  10.1694299460  13.3425824690
Ga  12.2102925035  6.2839433220  13.3826693605
Ga  1.2409060740  0.9752849980  1.8314100160
Ga  14.8406909905  11.3186371810  21.4193461020
18
scale = 1.90000
Li  7.2034190420  1.4838691820  4.7821971150
Li  14.6438187000  11.2002961110  15.4714237400
Li  13.2616107850  6.0461129490  19.1527331150
Li  9.0182173040  11.1661130780  19.0196570770
Ga  11.6705269590  8.8358752160  9.5447291160
Ga  9.9251317450  2.3273850120  14.1933349510
Ga  4.8318181040  8.9064435720  14.2840537950
Ga  4.8743941590  3.7866781310  14.2962232950
Ga  6.6091640410  10.2555469510  9.6759165160
Ga  11.7083758520  3.7665059830  9.6695643410
Ga  8.0343744280  6.1930333750  7.2762871770
Ga  6.9662528530  2.2100622540  10.1210733110
Ga  3.8979840640  6.1673935400  10.0984995820
Ga  8.3918424990  6.4012135250  16.5909008520
Ga  9.4760797980  10.4442794040  13.7031928060
Ga  12.5403004090  6.4537796280  13.7443631270
Ga  1.2744440760  1.0016440520  1.8809075840
Ga  15.2417907470  11.6245462940  21.9982473480
18
scale = 1.95000
Li  7.3929827010  1.5229183710  4.9080444075
Li  15.0291823500  11.4950407455  15.8785664700
Li  13.6106005425  6.2052211845  19.6567524075
Li  9.2555388120  11.4599581590  19.5201743685
Ga  11.9776460895  9.0683982480  9.7959061980
Ga  10.1863194225  2.3886319860  14.5668437655
Ga  4.9589712120  9.1408236660  14.6599499475
Ga  5.0026676895  3.8863275555  14.6724396975
Ga  6.7830894105  10.5254297655  9.9305458980
Ga  12.0164910060  3.8656245615  9.9240265605
Ga  8.2458053340  6.3560079375  7.4677684185
Ga  7.1495752965  2.2682217870  10.3874173455
Ga  4.0005625920  6.3296933700  10.3642495710
Ga  8.6126804595  6.5696665125  17.0275035060
Ga  9.7254503190  10.7191288620  14.0638031430
Ga  12.8703083145  6.6236159340  14.1060568935
Ga  1.3079820780  1.0280031060  1.9304051520
Ga  15.6428905035  11.9304554070  22.5771485940
18
scale = 2.00000
Li  7.5825463600  1.5619675600  5.0338917000
Li  15.4145460000  11.7897853800  16.2857092000
Li  13.9595903000  6.3643294200  20.1607717000
Li  9.4928603200  11.7538032400  20.0206916600
Ga  12.2847652200  9.3009212800  10.0470832800
Ga  10.4475071000  2.4498789600  14.9403525800
Ga  5.0861243200  9.3752037600  15.0358461000
Ga  5.1309412200  3.9859769800  15.0486561000
Ga  6.9570147800  10.7953125800  10.1851752800
Ga  12.3246061600  3.9647431400  10.1784887800
Ga  8.4572362400  6.5189825000  7.6592496600
Ga  7.3328977400  2.3263813200  10.6537613800
Ga  4.1031411200  6.4919932000  10.6299995600
Ga  8.8335184200  6.7381195000  17.4641061600
Ga  9.9748208400  10.9939783200  14.4244134800
Ga  13.2003162200  6.7934522400  14.4677506600
Ga  1.3415200800  1.0543621600  1.9799027200
Ga  16.0439902600  12.2363645200  23.1560498400
18
scale = 2.05000
Li  7.7721100190  1.6010167490  5.1597389925
Li  15.7999096500  12.0845300145  16.6928519300
Li  14.3085800575  6.5234376555  20.6647909925
Li  9.7301818280  12.0476483210  20.5212089515
Ga  12.5918843505  9.5334443120  10.2982603620
Ga  10.7086947775  2.5111259340  15.3138613945
Ga  5.2132774280  9.6095838540  15.4117422525
Ga  5.2592147505  4.0856264045  15.4248725025
Ga  7.1309401495  11.0651953945  10.4398046620
Ga  12.6327213140  4.0638617185  10.4329509995
Ga  8.6686671460  6.6819570625  7.8507309015
Ga  7.5162201835  2.3845408530  10.9201054145
Ga  4.2057196480  6.6542930300  10.8957495490
Ga  9.0543563805  6.9065724875  17.9007088140
Ga  10.2241913610  11.2688277780  14.7850238170
Ga  13.5303241255  6.9632885460  14.8294444265
Ga  1.3750580820  1.0807212140  2.0294002880
Ga  16.4450900165  12.5422736330  23.7349510860
18
scale = 2.10000
Li  7.9616736780  1.6400659380  5.2855862850
Li  16.1852733000  12.3792746490  17.0999946600
Li  14.6575698150  6.6825458910  21.1688102850
Li  9.9675033360  12.3414934020  21.0217262430
Ga  12.8990034810  9.7659673440  10.5494374440
Ga  10.9698824550  2.5723729080  15.6873702090
Ga  5.3404305360  9.8439639480  15.7876384050
Ga  5.3874882810  4.1852758290  15.8010889050
Ga  7.3048655190  11.3350782090  10.6944340440
Ga  12.9408364680  4.1629802970  10.6874132190
Ga  8.8800980520  6.8449316250  8.0422121430
Ga  7.6995426270  2.4427003860  11.1864494490
Ga  4.3082981760  6.8165928600  11.1614995380
Ga  9.2751943410  7.0750254750  18.3373114680
Ga  10.4735618820  11.5436772360  15.1456341540
Ga  13.8603320310  7.1331248520  15.1911381930
Ga  1.4085960840  1.1070802680  2.0788978560
Ga  16.8461897730  12.8481827460  24.3138523320
18
scale = 2.15000
Li  8.1512373370  1.6791151270  5.4114335775
Li  16.5706369500  12.6740192835  17.5071373900
Li  15.0065595725  6.8416541265  21.6728295775
Li  10.2048248440  12.6353384830  21.5222435345
Ga  13.2061226115  9.9984903760  10.8006145260
Ga  11.2310701325  2.6336198820  16.0608790235
Ga  5.4675836440  10.0783440420  16.1635345575
Ga  5.5157618115  4.2849252535  16.1773053075
Ga  7.4787908885  11.6049610235  10.9490634260
Ga  13.2489516220  4.2620988755  10.9418754385
Ga  9.0915289580  7.0079061875  8.2336933845
Ga  7.8828650705  2.5008599190  11.4527934835
Ga  4.4108767040  6.9788926900  11.4272495270
Ga  9.4960323015  7.2434784625  18.7739141220
Ga  10.7229324030  11.8185266940  15.5062444910
Ga  14.1903399365  7.3029611580  15.5528319595
Ga  1.4421340860  1.1334393220  2.1283954240
Ga  17.2472895295  13.1540918590  24.8927535780
18
scale = 2.20000
Li  8.3408009960  1.7181643160  5.5372808700
Li  16.9560006000  12.9687639180  17.9142801200
Li  15.3555493300  7.0007623620  22.1768488700
Li  10.4421463520  12.9291835640  22.0227608260
Ga  13.5132417420  10.2310134080  11.0517916080
Ga  11.4922578100  2.6948668560  16.4343878380
Ga  5.5947367520  10.3127241360  16.5394307100
Ga  5.6440353420  4.3845746780  16.5535217100
Ga  7.6527162580  11.8748438380  11.2036928080
Ga  13.5570667760  4.3612174540  11.1963376580
Ga  9.3029598640  7.1708807500  8.4251746260
Ga  8.0661875140  2.5590194520  11.7191375180
Ga  4.5134552320  7.1411925200  11.6929995160
Ga  9.7168702620  7.4119314500  19.2105167760
Ga  10.9723029240  12.0933761520  15.8668548280
Ga  14.5203478420  7.4727974640  15.9145257260
Ga  1.4756720880  1.1597983760  2.1778929920
Ga  17.6483892860  13.4600009720  25.4716548240
18
scale = 2.25000
Li  8.5303646550  1.7572135050  5.6631281625
Li  17.3413642500  13.2635085525  18.3214228500
Li  15.7045390875  7.1598705975  22.6808681625
Li  10.6794678600  13.2230286450  22.5232781175
Ga  13.8203608725  10.4635364400  11.3029686900
Ga  11.7534454875  2.7561138300  16.8078966525
Ga  5.7218898600  10.5471042300  16.9153268625
Ga  5.7723088725  4.4842241025  16.9297381125
Ga  7.8266416275  12.1447266525  11.4583221900
Ga  13.8651819300  4.4603360325  11.4507998775
Ga  9.5143907700  7.3338553125  8.6166558675
Ga  8.2495099575  2.6171789850  11.9854815525
Ga  4.6160337600  7.3034923500  11.9587495050
Ga  9.9377082225  7.5803844375  19.6471194300
Ga  11.2216734450  12.3682256100  16.2274651650
Ga  14.8503557475  7.6426337700  16.2762194925
Ga  1.5092100900  1.1861574300  2.2273905600
Ga  18.0494890425  13.7659100850  26.0505560700
18
scale = 2.30000
Li  8.7199283140  1.7962626940  5.7889754550
Li  17.7267279000  13.5582531870  18.7285655800
Li  16.0535288450  7.3189788330  23.1848874550
Li  10.9167893680  13.5168737260  23.0237954090
Ga  14.1274800030  10.6960594720  11.5541457720
Ga  12.0146331650  2.8173608040  17.1814054670
Ga  5.8490429680  10.7814843240  17.2912230150
Ga  5.9005824030  4.5838735270  17.3059545150
Ga  8.0005669970  12.4146094670  11.7129515720
Ga  14.1732970840  4.5594546110  11.7052620970
Ga  9.7258216760  7.4968298750  8.8081371090
Ga  8.4328324010  2.6753385180  12.2518255870
Ga  4.7186122880  7.4657921800  12.2244994940
Ga  10.1585461830  7.7488374250  20.0837220840
Ga  11.4710439660  12.6430750680  16.5880755020
Ga  15.1803636530  7.8124700760  16.6379132590
Ga  1.5427480920  1.2125164840  2.2768881280
Ga  18.4505887990  14.0718191980  26.6294573160
18
scale = 2.35000
Li  8.9094919730  1.8353118830  5.9148227475
Li  18.1120915500  13.8529978215  19.1357083100
Li  16.4025186025  7.4780870685  23.6889067475
Li  11.1541108760  13.8107188070  23.5243127005
Ga  14.4345991335  10.9285825040  11.8053228540
Ga  12.2758208425  2.8786077780  17.5549142815
Ga  5.9761960760  11.0158644180  17.6671191675
Ga  6.0288559335  4.6835229515  17.6821709175
Ga  8.1744923665  12.6844922815  11.9675809540
Ga  14.4814122380  4.6585731895  11.9597243165
Ga  9.9372525820  7.6598044375  8.9996183505
Ga  8.6161548445  2.7334980510  12.5181696215
Ga  4.8211908160  7.6280920100  12.4902494830
Ga  10.3793841435  7.9172904125  20.5203247380
Ga  11.7204144870  12.9179245260  16.9486858390
Ga  15.5103715585  7.9823063820  16.9996070255
Ga  1.5762860940  1.2388755380  2.3263856960
Ga  18.8516885555  14.3777283110  27.2083585620
18
scale = 2.40000
Li  9.0990556320  1.8743610720  6.0406700400
Li  18.4974552000  14.1477424560  19.5428510400
Li  16.7515083600  7.6371953040  24.1929260400
Li  11.3914323840  14.1045638880  24.0248299920
Ga  14.7417182640  11.1611055360  12.0564999360
Ga  12.5370085200  2.9398547520  17.9284230960
Ga  6.1033491840  11.2502445120  18.0430153200
Ga  6.1571294640  4.7831723760  18.0583873200
Ga  8.3484177360  12.9543750960  12.2222103360
Ga  14.7895273920  4.7576917680  12.2141865360
Ga  10.1486834880  7.8227790000  9.1910995920
Ga  8.7994772880  2.7916575840  12.7845136560
Ga  4.9237693440  7.7903918400  12.7559994720
Ga  10.6002221040  8.0857434000  20.9569273920
Ga  11.9697850080  13.1927739840  17.3092961760
Ga  15.8403794640  8.1521426880  17.3613007920
Ga  1.6098240960  1.2652345920  2.3758832640
Ga  19.2527883120  14.6836374240  27.7872598080
18
scale = 2.45000
Li  9.2886192910  1.9134102610  6.1665173325
Li  18.8828188500  14.4424870905  19.9499937700
Li  17.1004981175  7.7963035395  24.6969453325
Li  11.6287538920  14.3984089690  24.5253472835
Ga  15.0488373945  11.3936285680  12.3076770180
Ga  12.7981961975  3.0011017260  18.3019319105
Ga  6.2305022920  11.4846246060  18.4189114725
Ga  6.2854029945  4.8828218005  18.4346037225
Ga  8.5223431055  13.2242579105  12.4768397180
Ga  15.0976425460  4.8568103465  12.4686487555
Ga  10.3601143940  7.9857535625  9.3825808335
Ga  8.9827997315  2.8498171170  13.0508576905
Ga  5.0263478720  7.9526916700  13.0217494610
Ga  10.8210600645  8.2541963875  21.3935300460
Ga  12.2191555290  13.4676234420  17.6699065130
Ga  16.1703873695  8.3219789940  17.7229945585
Ga  1.6433620980  1.2915936460  2.4253808320
Ga  19.6538880685  14.9895465370  28.3661610540
