6
scale = 0.75000
Li  0.0000036900  0.2303420100  5.1253361700
Li  1.2411506025  1.5553798800  1.0917722550
Li  -0.0000017775  2.7955754700  2.3963444625
Li  -0.0000012900  0.2047566600  2.3285131500
Mg  1.2411518475  1.4593746300  3.7007377800
Mg  -0.0000017850  2.8915768125  5.0503722000
6
scale = 0.80000
Li  0.0000039360  0.2456981440  5.4670252480
Li  1.3238939760  1.6590718720  1.1645570720
Li  -0.0000018960  2.9819471680  2.5561007600
Li  -0.0000013760  0.2184071040  2.4837473600
Mg  1.3238953040  1.5566662720  3.9474536320
Mg  -0.0000019040  3.0843486000  5.3870636800
6
scale = 0.85000
Li  0.0000041820  0.2610542780  5.8087143260
Li  1.4066373495  1.7627638640  1.2373418890
Li  -0.0000020145  3.1683188660  2.7158570575
Li  -0.0000014620  0.2320575480  2.6389815700
Mg  1.4066387605  1.6539579140  4.1941694840
Mg  -0.0000020230  3.2771203875  5.7237551600
6
scale = 0.90000
Li  0.0000044280  0.2764104120  6.1504034040
Li  1.4893807230  1.8664558560  1.3101267060
Li  -0.0000021330  3.3546905640  2.8756133550
Li  -0.0000015480  0.2457079920  2.7942157800
Mg  1.4893822170  1.7512495560  4.4408853360
Mg  -0.0000021420  3.4698921750  6.0604466400
6
scale = 0.95000
Li  0.0000046740  0.2917665460  6.4920924820
Li  1.5721240965  1.9701478480  1.3829115230
Li  -0.0000022515  3.5410622620  3.0353696525
Li  -0.0000016340  0.2593584360  2.9494499900
Mg  1.5721256735  1.8485411980  4.6876011880
Mg  -0.0000022610  3.6626639625  6.3971381200
6
scale = 1.00000
Li  0.0000049200  0.3071226800  6.8337815600
Li  1.6548674700  2.0738398400  1.4556963400
Li  -0.0000023700  3.7274339600  3.1951259500
Li  -0.0000017200  0.2730088800  3.1046842000
Mg  1.6548691300  1.9458328400  4.9343170400
Mg  -0.0000023800  3.8554357500  6.7338296000
6
scale = 1.05000
Li  0.0000051660  0.3224788140  7.1754706380
Li  1.7376108435  2.1775318320  1.5284811570
Li  -0.0000024885  3.9138056580  3.3548822475
Li  -0.0000018060  0.2866593240  3.2599184100
Mg  1.7376125865  2.0431244820  5.1810328920
Mg  -0.0000024990  4.0482075375  7.0705210800
6
scale = 1.10000
Li  0.0000054120  0.3378349480  7.5171597160
Li  1.8203542170  2.2812238240  1.6012659740
Li  -0.0000026070  4.1001773560  3.5146385450
Li  -0.0000018920  0.3003097680  3.4151526200
Mg  1.8203560430  2.1404161240  5.4277487440
Mg  -0.0000026180  4.2409793250  7.4072125600
6
scale = 1.15000
Li  0.0000056580  0.3531910820  7.8588487940
Li  1.9030975905  2.3849158160  1.6740507910
Li  -0.0000027255  4.2865490540  3.6743948425
Li  -0.0000019780  0.3139602120  3.5703868300
Mg  1.9030994995  2.2377077660  5.6744645960
Mg  -0.0000027370  4.4337511125  7.7439040400
6
scale = 1.20000
Li  0.0000059040  0.3685472160  8.2005378720
Li  1.9858409640  2.4886078080  1.7468356080
Li  -0.0000028440  4.4729207520  3.8341511400
Li  -0.0000020640  0.3276106560  3.7256210400
Mg  1.9858429560  2.3349994080  5.9211804480
Mg  -0.0000028560  4.6265229000  8.0805955200
6
scale = 1.25000
Li  0.0000061500  0.3839033500  8.5422269500
Li  2.0685843375  2.5922998000  1.8196204250
Li  -0.0000029625  4.6592924500  3.9939074375
Li  -0.0000021500  0.3412611000  3.8808552500
Mg  2.0685864125  2.4322910500  6.1678963000
Mg  -0.0000029750  4.8192946875  8.4172870000
6
scale = 1.30000
Li  0.0000063960  0.3992594840  8.8839160280
Li  2.1513277110  2.6959917920  1.8924052420
Li  -0.0000030810  4.8456641480  4.1536637350
Li  -0.0000022360  0.3549115440  4.0360894600
Mg  2.1513298690  2.5295826920  6.4146121520
Mg  -0.0000030940  5.0120664750  8.7539784800
6
scale = 1.35000
Li  0.0000066420  0.4146156180  9.2256051060
Li  2.2340710845  2.7996837840  1.9651900590
Li  -0.0000031995  5.0320358460  4.3134200325
Li  -0.0000023220  0.3685619880  4.1913236700
Mg  2.2340733255  2.6268743340  6.6613280040
Mg  -0.0000032130  5.2048382625  9.0906699600
6
scale = 1.40000
Li  0.0000068880  0.4299717520  9.5672941840
Li  2.3168144580  2.9033757760  2.0379748760
Li  -0.0000033180  5.2184075440  4.4731763300
Li  -0.0000024080  0.3822124320  4.3465578800
Mg  2.3168167820  2.7241659760  6.9080438560
Mg  -0.0000033320  5.3976100500  9.4273614400
6
scale = 1.45000
Li  0.0000071340  0.4453278860  9.9089832620
Li  2.3995578315  3.0070677680  2.1107596930
Li  -0.0000034365  5.4047792420  4.6329326275
Li  -0.0000024940  0.3958628760  4.5017920900
Mg  2.3995602385  2.8214576180  7.1547597080
Mg  -0.0000034510  5.5903818375  9.7640529200
6
scale = 1.50000
Li  0.0000073800  0.4606840200  10.2506723400
Li  2.4823012050  3.1107597600  2.1835445100
Li  -0.0000035550  5.5911509400  4.7926889250
Li  -0.0000025800  0.4095133200  4.6570263000
Mg  2.4823036950  2.9187492600  7.4014755600
Mg  -0.0000035700  5.7831536250  10.1007444000
6
scale = 1.55000
Li  0.0000076260  0.4760401540  10.5923614180
Li  2.5650445785  3.2144517520  2.2563293270
Li  -0.0000036735  5.7775226380  4.9524452225
Li  -0.0000026660  0.4231637640  4.8122605100
Mg  2.5650471515  3.0160409020  7.6481914120
Mg  -0.0000036890  5.9759254125  10.4374358800
6
scale = 1.60000
Li  0.0000078720  0.4913962880  10.9340504960
Li  2.6477879520  3.3181437440  2.3291141440
Li  -0.0000037920  5.9638943360  5.1122015200
Li  -0.0000027520  0.4368142080  4.9674947200
Mg  2.6477906080  3.1133325440  7.8949072640
Mg  -0.0000038080  6.1686972000  10.7741273600
6
scale = 1.65000
Li  0.0000081180  0.5067524220  11.2757395740
Li  2.7305313255  3.4218357360  2.4018989610
Li  -0.0000039105  6.1502660340  5.2719578175
Li  -0.0000028380  0.4504646520  5.1227289300
Mg  2.7305340645  3.2106241860  8.1416231160
Mg  -0.0000039270  6.3614689875  11.1108188400
6
scale = 1.70000
Li  0.0000083640  0.5221085560  11.6174286520
Li  2.8132746990  3.5255277280  2.4746837780
Li  -0.0000040290  6.3366377320  5.4317141150
Li  -0.0000029240  0.4641150960  5.2779631400
Mg  2.8132775210  3.3079158280  8.3883389680
Mg  -0.0000040460  6.5542407750  11.4475103200
6
scale = 1.75000
Li  0.0000086100  0.5374646900  11.9591177300
Li  2.8960180725  3.6292197200  2.5474685950
Li  -0.0000041475  6.5230094300  5.5914704125
Li  -0.0000030100  0.4777655400  5.4331973500
Mg  2.8960209775  3.4052074700  8.6350548200
Mg  -0.0000041650  6.7470125625  11.7842018000
6
scale = 1.80000
Li  0.0000088560  0.5528208240  12.3008068080
Li  2.9787614460  3.7329117120  2.6202534120
Li  -0.0000042660  6.7093811280  5.7512267100
Li  -0.0000030960  0.4914159840  5.5884315600
Mg  2.9787644340  3.5024991120  8.8817706720
Mg  -0.0000042840  6.9397843500  12.1208932800
6
scale = 1.85000
Li  0.0000091020  0.5681769580  12.6424958860
Li  3.0615048195  3.8366037040  2.6930382290
Li  -0.0000043845  6.8957528260  5.9109830075
Li  -0.0000031820  0.5050664280  5.7436657700
Mg  3.0615078905  3.5997907540  9.1284865240
Mg  -0.0000044030  7.1325561375  12.4575847600
6
scale = 1.90000
Li  0.0000093480  0.5835330920  12.9841849640
Li  3.1442481930  3.9402956960  2.7658230460
Li  -0.0000045030  7.0821245240  6.0707393050
Li  -0.0000032680  0.5187168720  5.8988999800
Mg  3.1442513470  3.6970823960  9.3752023760
Mg  -0.0000045220  7.3253279250  12.7942762400
6
scale = 1.95000
Li  0.0000095940  0.5988892260  13.3258740420
Li  3.2269915665  4.0439876880  2.8386078630
Li  -0.0000046215  7.2684962220  6.2304956025
Li  -0.0000033540  0.5323673160  6.0541341900
Mg  3.2269948035  3.7943740380  9.6219182280
Mg  -0.0000046410  7.5180997125  13.1309677200
6
scale = 2.00000
Li  0.0000098400  0.6142453600  13.6675631200
Li  3.3097349400  4.1476796800  2.9113926800
Li  -0.0000047400  7.4548679200  6.3902519000
Li  -0.0000034400  0.5460177600  6.2093684000
Mg  3.3097382600  3.8916656800  9.8686340800
Mg  -0.0000047600  7.7108715000  13.4676592000
6
scale = 2.05000
Li  0.0000100860  0.6296014940  14.0092521980
Li  3.3924783135  4.2513716720  2.9841774970
Li  -0.0000048585  7.6412396180  6.5500081975
Li  -0.0000035260  0.5596682040  6.3646026100
Mg  3.3924817165  3.9889573220  10.1153499320
Mg  -0.0000048790  7.9036432875  13.8043506800
6
scale = 2.10000
Li  0.0000103320  0.6449576280  14.3509412760
Li  3.4752216870  4.3550636640  3.0569623140
Li  -0.0000049770  7.8276113160  6.7097644950
Li  -0.0000036120  0.5733186480  6.5198368200
Mg  3.4752251730  4.0862489640  10.3620657840
Mg  -0.0000049980  8.0964150750  14.1410421600
6
scale = 2.15000
Li  0.0000105780  0.6603137620  14.6926303540
Li  3.5579650605  4.4587556560  3.1297471310
Li  -0.0000050955  8.0139830140  6.8695207925
Li  -0.0000036980  0.5869690920  6.6750710300
Mg  3.5579686295  4.1835406060  10.6087816360
Mg  -0.0000051170  8.2891868625  14.4777336400
6
scale = 2.20000
Li  0.0000108240  0.6756698960  15.0343194320
Li  3.6407084340  4.5624476480  3.2025319480
Li  -0.0000052140  8.2003547120  7.0292770900
Li  -0.0000037840  0.6006195360  6.8303052400
Mg  3.6407120860  4.2808322480  10.8554974880
Mg  -0.0000052360  8.4819586500  14.8144251200
6
scale = 2.25000
Li  0.0000110700  0.6910260300  15.3760085100
Li  3.7234518075  4.6661396400  3.2753167650
Li  -0.0000053325  8.3867264100  7.1890333875
Li  -0.0000038700  0.6142699800  6.9855394500
Mg  3.7234555425  4.3781238900  11.1022133400
Mg  -0.0000053550  8.6747304375  15.1511166000
6
scale = 2.30000
Li  0.0000113160  0.7063821640  15.7176975880
Li  3.8061951810  4.7698316320  3.3481015820
Li  -0.0000054510  8.5730981080  7.3487896850
Li  -0.0000039560  0.6279204240  7.1407736600
Mg  3.8061989990  4.4754155320  11.3489291920
Mg  -0.0000054740  8.8675022250  15.4878080800
6
scale = 2.35000
Li  0.0000115620  0.7217382980  16.0593866660
Li  3.8889385545  4.8735236240  3.4208863990
Li  -0.0000055695  8.7594698060  7.5085459825
Li  -0.0000040420  0.6415708680  7.2960078700
Mg  3.8889424555  4.5727071740  11.5956450440
Mg  -0.0000055930  9.0602740125  15.8244995600
6
scale = 2.40000
Li  0.0000118080  0.7370944320  16.4010757440
Li  3.9716819280  4.9772156160  3.4936712160
Li  -0.0000056880  8.9458415040  7.6683022800
Li  -0.0000041280  0.6552213120  7.4512420800
Mg  3.9716859120  4.6699988160  11.8423608960
Mg  -0.0000057120  9.2530458000  16.1611910400
6
scale = 2.45000
Li  0.0000120540  0.7524505660  16.7427648220
Li  4.0544253015  5.0809076080  3.5664560330
Li  -0.0000058065  9.1322132020  7.8280585775
Li  -0.0000042140  0.6688717560  7.6064762900
Mg  4.0544293685  4.7672904580  12.0890767480
Mg  -0.0000058310  9.4458175875  16.4978825200
