6
scale = 0.75000
Li  0.0000000000  0.0000000000  11.5691872500
Li  0.0000000000  0.0000000000  3.8647053600
Li  1.1543514975  0.6664646175  5.7814760775
Li  1.1543514975  0.6664646175  9.6524165400
Mg  1.1543514975  0.6664646175  1.9292409150
Mg  0.0000000000  0.0000000000  7.7169482325
6
scale = 0.80000
Li  0.0000000000  0.0000000000  12.3404664000
Li  0.0000000000  0.0000000000  4.1223523840
Li  1.2313082640  0.7108955920  6.1669078160
Li  1.2313082640  0.7108955920  10.2959109760
Mg  1.2313082640  0.7108955920  2.0578569760
Mg  0.0000000000  0.0000000000  8.2314114480
6
scale = 0.85000
Li  0.0000000000  0.0000000000  13.1117455500
Li  0.0000000000  0.0000000000  4.3799994080
Li  1.3082650305  0.7553265665  6.5523395545
Li  1.3082650305  0.7553265665  10.9394054120
Mg  1.3082650305  0.7553265665  2.1864730370
Mg  0.0000000000  0.0000000000  8.7458746635
6
scale = 0.90000
Li  0.0000000000  0.0000000000  13.8830247000
Li  0.0000000000  0.0000000000  4.6376464320
Li  1.3852217970  0.7997575410  6.9377712930
Li  1.3852217970  0.7997575410  11.5828998480
Mg  1.3852217970  0.7997575410  2.3150890980
Mg  0.0000000000  0.0000000000  9.2603378790
6
scale = 0.95000
Li  0.0000000000  0.0000000000  14.6543038500
Li  0.0000000000  0.0000000000  4.8952934560
Li  1.4621785635  0.8441885155  7.3232030315
Li  1.4621785635  0.8441885155  12.2263942840
Mg  1.4621785635  0.8441885155  2.4437051590
Mg  0.0000000000  0.0000000000  9.7748010945
6
scale = 1.00000
Li  0.0000000000  0.0000000000  15.4255830000
Li  0.0000000000  0.0000000000  5.1529404800
Li  1.5391353300  0.8886194900  7.7086347700
Li  1.5391353300  0.8886194900  12.8698887200
Mg  1.5391353300  0.8886194900  2.5723212200
Mg  0.0000000000  0.0000000000  10.2892643100
6
scale = 1.05000
Li  0.0000000000  0.0000000000  16.1968621500
Li  0.0000000000  0.0000000000  5.4105875040
Li  1.6160920965  0.9330504645  8.0940665085
Li  1.6160920965  0.9330504645  13.5133831560
Mg  1.6160920965  0.9330504645  2.7009372810
Mg  0.0000000000  0.0000000000  10.8037275255
6
scale = 1.10000
Li  0.0000000000  0.0000000000  16.9681413000
Li  0.0000000000  0.0000000000  5.6682345280
Li  1.6930488630  0.9774814390  8.4794982470
Li  1.6930488630  0.9774814390  14.1568775920
Mg  1.6930488630  0.9774814390  2.8295533420
Mg  0.0000000000  0.0000000000  11.3181907410
6
scale = 1.15000
Li  0.0000000000  0.0000000000  17.7394204500
Li  0.0000000000  0.0000000000  5.9258815520
Li  1.7700056295  1.0219124135  8.8649299855
Li  1.7700056295  1.0219124135  14.8003720280
Mg  1.7700056295  1.0219124135  2.9581694030
Mg  0.0000000000  0.0000000000  11.8326539565
6
scale = 1.20000
Li  0.0000000000  0.0000000000  18.5106996000
Li  0.0000000000  0.0000000000  6.1835285760
Li  1.8469623960  1.0663433880  9.2503617240
Li  1.8469623960  1.0663433880  15.4438664640
Mg  1.8469623960  1.0663433880  3.0867854640
Mg  0.0000000000  0.0000000000  12.3471171720
6
scale = 1.25000
Li  0.0000000000  0.0000000000  19.2819787500
Li  0.0000000000  0.0000000000  6.4411756000
Li  1.9239191625  1.1107743625  9.6357934625
Li  1.9239191625  1.1107743625  16.0873609000
Mg  1.9239191625  1.1107743625  3.2154015250
Mg  0.0000000000  0.0000000000  12.8615803875
6
scale = 1.30000
Li  0.0000000000  0.0000000000  20.0532579000
Li  0.0000000000  0.0000000000  6.6988226240
Li  2.0008759290  1.1552053370  10.0212252010
Li  2.0008759290  1.1552053370  16.7308553360
Mg  2.0008759290  1.1552053370  3.3440175860
Mg  0.0000000000  0.0000000000  13.3760436030
6
scale = 1.35000
Li  0.0000000000  0.0000000000  20.8245370500
Li  0.0000000000  0.0000000000  6.9564696480
Li  2.0778326955  1.1996363115  10.4066569395
Li  2.0778326955  1.1996363115  17.3743497720
Mg  2.0778326955  1.1996363115  3.4726336470
Mg  0.0000000000  0.0000000000  13.8905068185
6
scale = 1.40000
Li  0.0000000000  0.0000000000  21.5958162000
Li  0.0000000000  0.0000000000  7.2141166720
Li  2.1547894620  1.2440672860  10.7920886780
Li  2.1547894620  1.2440672860  18.0178442080
Mg  2.1547894620  1.2440672860  3.6012497080
Mg  0.0000000000  0.0000000000  14.4049700340
6
scale = 1.45000
Li  0.0000000000  0.0000000000  22.3670953500
Li  0.0000000000  0.0000000000  7.4717636960
Li  2.2317462285  1.2884982605  11.1775204165
Li  2.2317462285  1.2884982605  18.6613386440
Mg  2.2317462285  1.2884982605  3.7298657690
Mg  0.0000000000  0.0000000000  14.9194332495
6
scale = 1.50000
Li  0.0000000000  0.0000000000  23.1383745000
Li  0.0000000000  0.0000000000  7.7294107200
Li  2.3087029950  1.3329292350  11.5629521550
Li  2.3087029950  1.3329292350  19.3048330800
Mg  2.3087029950  1.3329292350  3.8584818300
Mg  0.0000000000  0.0000000000  15.4338964650
6
scale = 1.55000
Li  0.0000000000  0.0000000000  23.9096536500
Li  0.0000000000  0.0000000000  7.9870577440
Li  2.3856597615  1.3773602095  11.9483838935
Li  2.3856597615  1.3773602095  19.9483275160
Mg  2.3856597615  1.3773602095  3.9870978910
Mg  0.0000000000  0.0000000000  15.9483596805
6
scale = 1.60000
Li  0.0000000000  0.0000000000  24.6809328000
Li  0.0000000000  0.0000000000  8.2447047680
Li  2.4626165280  1.4217911840  12.3338156320
Li  2.4626165280  1.4217911840  20.5918219520
Mg  2.4626165280  1.4217911840  4.1157139520
Mg  0.0000000000  0.0000000000  16.4628228960
6
scale = 1.65000
Li  0.0000000000  0.0000000000  25.4522119500
Li  0.0000000000  0.0000000000  8.5023517920
Li  2.5395732945  1.4662221585  12.7192473705
Li  2.5395732945  1.4662221585  21.2353163880
Mg  2.5395732945  1.4662221585  4.2443300130
Mg  0.0000000000  0.0000000000  16.9772861115
6
scale = 1.70000
Li  0.0000000000  0.0000000000  26.2234911000
Li  0.0000000000  0.0000000000  8.7599988160
Li  2.6165300610  1.5106531330  13.1046791090
Li  2.6165300610  1.5106531330  21.8788108240
Mg  2.6165300610  1.5106531330  4.3729460740
Mg  0.0000000000  0.0000000000  17.4917493270
6
scale = 1.75000
Li  0.0000000000  0.0000000000  26.9947702500
Li  0.0000000000  0.0000000000  9.0176458400
Li  2.6934868275  1.5550841075  13.4901108475
Li  2.6934868275  1.5550841075  22.5223052600
Mg  2.6934868275  1.5550841075  4.5015621350
Mg  0.0000000000  0.0000000000  18.0062125425
6
scale = 1.80000
Li  0.0000000000  0.0000000000  27.7660494000
Li  0.0000000000  0.0000000000  9.2752928640
Li  2.7704435940  1.5995150820  13.8755425860
Li  2.7704435940  1.5995150820  23.1657996960
Mg  2.7704435940  1.5995150820  4.6301781960
Mg  0.0000000000  0.0000000000  18.5206757580
6
scale = 1.85000
Li  0.0000000000  0.0000000000  28.5373285500
Li  0.0000000000  0.0000000000  9.5329398880
Li  2.8474003605  1.6439460565  14.2609743245
Li  2.8474003605  1.6439460565  23.8092941320
Mg  2.8474003605  1.6439460565  4.7587942570
Mg  0.0000000000  0.0000000000  19.0351389735
6
scale = 1.90000
Li  0.0000000000  0.0000000000  29.3086077000
Li  0.0000000000  0.0000000000  9.7905869120
Li  2.9243571270  1.6883770310  14.6464060630
Li  2.9243571270  1.6883770310  24.4527885680
Mg  2.9243571270  1.6883770310  4.8874103180
Mg  0.0000000000  0.0000000000  19.5496021890
6
scale = 1.95000
Li  0.0000000000  0.0000000000  30.0798868500
Li  0.0000000000  0.0000000000  10.0482339360
Li  3.0013138935  1.7328080055  15.0318378015
Li  3.0013138935  1.7328080055  25.0962830040
Mg  3.0013138935  1.7328080055  5.0160263790
Mg  0.0000000000  0.0000000000  20.0640654045
6
scale = 2.00000
Li  0.0000000000  0.0000000000  30.8511660000
Li  0.0000000000  0.0000000000  10.3058809600
Li  3.0782706600  1.7772389800  15.4172695400
Li  3.0782706600  1.7772389800  25.7397774400
Mg  3.0782706600  1.7772389800  5.1446424400
Mg  0.0000000000  0.0000000000  20.5785286200
6
scale = 2.05000
Li  0.0000000000  0.0000000000  31.6224451500
Li  0.0000000000  0.0000000000  10.5635279840
Li  3.1552274265  1.8216699545  15.8027012785
Li  3.1552274265  1.8216699545  26.3832718760
Mg  3.1552274265  1.8216699545  5.2732585010
Mg  0.0000000000  0.0000000000  21.0929918355
6
scale = 2.10000
Li  0.0000000000  0.0000000000  32.3937243000
Li  0.0000000000  0.0000000000  10.8211750080
Li  3.2321841930  1.8661009290  16.1881330170
Li  3.2321841930  1.8661009290  27.0267663120
Mg  3.2321841930  1.8661009290  5.4018745620
Mg  0.0000000000  0.0000000000  21.6074550510
6
scale = 2.15000
Li  0.0000000000  0.0000000000  33.1650034500
Li  0.0000000000  0.0000000000  11.0788220320
Li  3.3091409595  1.9105319035  16.5735647555
Li  3.3091409595  1.9105319035  27.6702607480
Mg  3.3091409595  1.9105319035  5.5304906230
Mg  0.0000000000  0.0000000000  22.1219182665
6
scale = 2.20000
Li  0.0000000000  0.0000000000  33.9362826000
Li  0.0000000000  0.0000000000  11.3364690560
Li  3.3860977260  1.9549628780  16.9589964940
Li  3.3860977260  1.9549628780  28.3137551840
Mg  3.3860977260  1.9549628780  5.6591066840
Mg  0.0000000000  0.0000000000  22.6363814820
6
scale = 2.25000
Li  0.0000000000  0.0000000000  34.7075617500
Li  0.0000000000  0.0000000000  11.5941160800
Li  3.4630544925  1.9993938525  17.3444282325
Li  3.4630544925  1.9993938525  28.9572496200
Mg  3.4630544925  1.9993938525  5.7877227450
Mg  0.0000000000  0.0000000000  23.1508446975
6
scale = 2.30000
Li  0.0000000000  0.0000000000  35.4788409000
Li  0.0000000000  0.0000000000  11.8517631040
Li  3.5400112590  2.0438248270  17.7298599710
Li  3.5400112590  2.0438248270  29.6007440560
Mg  3.5400112590  2.0438248270  5.9163388060
Mg  0.0000000000  0.0000000000  23.6653079130
6
scale = 2.35000
Li  0.0000000000  0.0000000000  36.2501200500
Li  0.0000000000  0.0000000000  12.1094101280
Li  3.6169680255  2.0882558015  18.1152917095
Li  3.6169680255  2.0882558015  30.2442384920
Mg  3.6169680255  2.0882558015  6.0449548670
Mg  0.0000000000  0.0000000000  24.1797711285
6
scale = 2.40000
Li  0.0000000000  0.0000000000  37.0213992000
Li  0.0000000000  0.0000000000  12.3670571520
Li  3.6939247920  2.1326867760  18.5007234480
Li  3.6939247920  2.1326867760  30.8877329280
Mg  3.6939247920  2.1326867760  6.1735709280
Mg  0.0000000000  0.0000000000  24.6942343440
6
scale = 2.45000
Li  0.0000000000  0.0000000000  37.7926783500
Li  0.0000000000  0.0000000000  12.6247041760
Li  3.7708815585  2.1771177505  18.8861551865
Li  3.7708815585  2.1771177505  31.5312273640
Mg  3.7708815585  2.1771177505  6.3021869890
Mg  0.0000000000  0.0000000000  25.2086975595
