6
scale = 0.75000
Li  1.1802469200  0.0000000000  3.8558612175
Li  2.8176424275  1.0940413125  2.6691973350
Li  0.8909547225  2.2013993325  3.2589400875
Li  2.4444220350  1.6477203225  4.8919993200
Mg  4.0717812900  2.7446802075  8.1488184150
Mg  0.8170627800  0.5507604375  1.6351802250
6
scale = 0.80000
Li  1.2589300480  0.0000000000  4.1129186320
Li  3.0054852560  1.1669774000  2.8471438240
Li  0.9503517040  2.3481592880  3.4762027600
Li  2.6073835040  1.7575683440  5.2181326080
Mg  4.3432333760  2.9276588880  8.6920729760
Mg  0.8715336320  0.5874778000  1.7441922400
6
scale = 0.85000
Li  1.3376131760  0.0000000000  4.3699760465
Li  3.1933280845  1.2399134875  3.0250903130
Li  1.0097486855  2.4949192435  3.6934654325
Li  2.7703449730  1.8674163655  5.5442658960
Mg  4.6146854620  3.1106375685  9.2353275370
Mg  0.9260044840  0.6241951625  1.8532042550
6
scale = 0.90000
Li  1.4162963040  0.0000000000  4.6270334610
Li  3.3811709130  1.3128495750  3.2030368020
Li  1.0691456670  2.6416791990  3.9107281050
Li  2.9333064420  1.9772643870  5.8703991840
Mg  4.8861375480  3.2936162490  9.7785820980
Mg  0.9804753360  0.6609125250  1.9622162700
6
scale = 0.95000
Li  1.4949794320  0.0000000000  4.8840908755
Li  3.5690137415  1.3857856625  3.3809832910
Li  1.1285426485  2.7884391545  4.1279907775
Li  3.0962679110  2.0871124085  6.1965324720
Mg  5.1575896340  3.4765949295  10.3218366590
Mg  1.0349461880  0.6976298875  2.0712282850
6
scale = 1.00000
Li  1.5736625600  0.0000000000  5.1411482900
Li  3.7568565700  1.4587217500  3.5589297800
Li  1.1879396300  2.9351991100  4.3452534500
Li  3.2592293800  2.1969604300  6.5226657600
Mg  5.4290417200  3.6595736100  10.8650912200
Mg  1.0894170400  0.7343472500  2.1802403000
6
scale = 1.05000
Li  1.6523456880  0.0000000000  5.3982057045
Li  3.9446993985  1.5316578375  3.7368762690
Li  1.2473366115  3.0819590655  4.5625161225
Li  3.4221908490  2.3068084515  6.8487990480
Mg  5.7004938060  3.8425522905  11.4083457810
Mg  1.1438878920  0.7710646125  2.2892523150
6
scale = 1.10000
Li  1.7310288160  0.0000000000  5.6552631190
Li  4.1325422270  1.6045939250  3.9148227580
Li  1.3067335930  3.2287190210  4.7797787950
Li  3.5851523180  2.4166564730  7.1749323360
Mg  5.9719458920  4.0255309710  11.9516003420
Mg  1.1983587440  0.8077819750  2.3982643300
6
scale = 1.15000
Li  1.8097119440  0.0000000000  5.9123205335
Li  4.3203850555  1.6775300125  4.0927692470
Li  1.3661305745  3.3754789765  4.9970414675
Li  3.7481137870  2.5265044945  7.5010656240
Mg  6.2433979780  4.2085096515  12.4948549030
Mg  1.2528295960  0.8444993375  2.5072763450
6
scale = 1.20000
Li  1.8883950720  0.0000000000  6.1693779480
Li  4.5082278840  1.7504661000  4.2707157360
Li  1.4255275560  3.5222389320  5.2143041400
Li  3.9110752560  2.6363525160  7.8271989120
Mg  6.5148500640  4.3914883320  13.0381094640
Mg  1.3073004480  0.8812167000  2.6162883600
6
scale = 1.25000
Li  1.9670782000  0.0000000000  6.4264353625
Li  4.6960707125  1.8234021875  4.4486622250
Li  1.4849245375  3.6689988875  5.4315668125
Li  4.0740367250  2.7462005375  8.1533322000
Mg  6.7863021500  4.5744670125  13.5813640250
Mg  1.3617713000  0.9179340625  2.7253003750
6
scale = 1.30000
Li  2.0457613280  0.0000000000  6.6834927770
Li  4.8839135410  1.8963382750  4.6266087140
Li  1.5443215190  3.8157588430  5.6488294850
Li  4.2369981940  2.8560485590  8.4794654880
Mg  7.0577542360  4.7574456930  14.1246185860
Mg  1.4162421520  0.9546514250  2.8343123900
6
scale = 1.35000
Li  2.1244444560  0.0000000000  6.9405501915
Li  5.0717563695  1.9692743625  4.8045552030
Li  1.6037185005  3.9625187985  5.8660921575
Li  4.3999596630  2.9658965805  8.8055987760
Mg  7.3292063220  4.9404243735  14.6678731470
Mg  1.4707130040  0.9913687875  2.9433244050
6
scale = 1.40000
Li  2.2031275840  0.0000000000  7.1976076060
Li  5.2595991980  2.0422104500  4.9825016920
Li  1.6631154820  4.1092787540  6.0833548300
Li  4.5629211320  3.0757446020  9.1317320640
Mg  7.6006584080  5.1234030540  15.2111277080
Mg  1.5251838560  1.0280861500  3.0523364200
6
scale = 1.45000
Li  2.2818107120  0.0000000000  7.4546650205
Li  5.4474420265  2.1151465375  5.1604481810
Li  1.7225124635  4.2560387095  6.3006175025
Li  4.7258826010  3.1855926235  9.4578653520
Mg  7.8721104940  5.3063817345  15.7543822690
Mg  1.5796547080  1.0648035125  3.1613484350
6
scale = 1.50000
Li  2.3604938400  0.0000000000  7.7117224350
Li  5.6352848550  2.1880826250  5.3383946700
Li  1.7819094450  4.4027986650  6.5178801750
Li  4.8888440700  3.2954406450  9.7839986400
Mg  8.1435625800  5.4893604150  16.2976368300
Mg  1.6341255600  1.1015208750  3.2703604500
6
scale = 1.55000
Li  2.4391769680  0.0000000000  7.9687798495
Li  5.8231276835  2.2610187125  5.5163411590
Li  1.8413064265  4.5495586205  6.7351428475
Li  5.0518055390  3.4052886665  10.1101319280
Mg  8.4150146660  5.6723390955  16.8408913910
Mg  1.6885964120  1.1382382375  3.3793724650
6
scale = 1.60000
Li  2.5178600960  0.0000000000  8.2258372640
Li  6.0109705120  2.3339548000  5.6942876480
Li  1.9007034080  4.6963185760  6.9524055200
Li  5.2147670080  3.5151366880  10.4362652160
Mg  8.6864667520  5.8553177760  17.3841459520
Mg  1.7430672640  1.1749556000  3.4883844800
6
scale = 1.65000
Li  2.5965432240  0.0000000000  8.4828946785
Li  6.1988133405  2.4068908875  5.8722341370
Li  1.9601003895  4.8430785315  7.1696681925
Li  5.3777284770  3.6249847095  10.7623985040
Mg  8.9579188380  6.0382964565  17.9274005130
Mg  1.7975381160  1.2116729625  3.5973964950
6
scale = 1.70000
Li  2.6752263520  0.0000000000  8.7399520930
Li  6.3866561690  2.4798269750  6.0501806260
Li  2.0194973710  4.9898384870  7.3869308650
Li  5.5406899460  3.7348327310  11.0885317920
Mg  9.2293709240  6.2212751370  18.4706550740
Mg  1.8520089680  1.2483903250  3.7064085100
6
scale = 1.75000
Li  2.7539094800  0.0000000000  8.9970095075
Li  6.5744989975  2.5527630625  6.2281271150
Li  2.0788943525  5.1365984425  7.6041935375
Li  5.7036514150  3.8446807525  11.4146650800
Mg  9.5008230100  6.4042538175  19.0139096350
Mg  1.9064798200  1.2851076875  3.8154205250
6
scale = 1.80000
Li  2.8325926080  0.0000000000  9.2540669220
Li  6.7623418260  2.6256991500  6.4060736040
Li  2.1382913340  5.2833583980  7.8214562100
Li  5.8666128840  3.9545287740  11.7407983680
Mg  9.7722750960  6.5872324980  19.5571641960
Mg  1.9609506720  1.3218250500  3.9244325400
6
scale = 1.85000
Li  2.9112757360  0.0000000000  9.5111243365
Li  6.9501846545  2.6986352375  6.5840200930
Li  2.1976883155  5.4301183535  8.0387188825
Li  6.0295743530  4.0643767955  12.0669316560
Mg  10.0437271820  6.7702111785  20.1004187570
Mg  2.0154215240  1.3585424125  4.0334445550
6
scale = 1.90000
Li  2.9899588640  0.0000000000  9.7681817510
Li  7.1380274830  2.7715713250  6.7619665820
Li  2.2570852970  5.5768783090  8.2559815550
Li  6.1925358220  4.1742248170  12.3930649440
Mg  10.3151792680  6.9531898590  20.6436733180
Mg  2.0698923760  1.3952597750  4.1424565700
6
scale = 1.95000
Li  3.0686419920  0.0000000000  10.0252391655
Li  7.3258703115  2.8445074125  6.9399130710
Li  2.3164822785  5.7236382645  8.4732442275
Li  6.3554972910  4.2840728385  12.7191982320
Mg  10.5866313540  7.1361685395  21.1869278790
Mg  2.1243632280  1.4319771375  4.2514685850
6
scale = 2.00000
Li  3.1473251200  0.0000000000  10.2822965800
Li  7.5137131400  2.9174435000  7.1178595600
Li  2.3758792600  5.8703982200  8.6905069000
Li  6.5184587600  4.3939208600  13.0453315200
Mg  10.8580834400  7.3191472200  21.7301824400
Mg  2.1788340800  1.4686945000  4.3604806000
6
scale = 2.05000
Li  3.2260082480  0.0000000000  10.5393539945
Li  7.7015559685  2.9903795875  7.2958060490
Li  2.4352762415  6.0171581755  8.9077695725
Li  6.6814202290  4.5037688815  13.3714648080
Mg  11.1295355260  7.5021259005  22.2734370010
Mg  2.2333049320  1.5054118625  4.4694926150
6
scale = 2.10000
Li  3.3046913760  0.0000000000  10.7964114090
Li  7.8893987970  3.0633156750  7.4737525380
Li  2.4946732230  6.1639181310  9.1250322450
Li  6.8443816980  4.6136169030  13.6975980960
Mg  11.4009876120  7.6851045810  22.8166915620
Mg  2.2877757840  1.5421292250  4.5785046300
6
scale = 2.15000
Li  3.3833745040  0.0000000000  11.0534688235
Li  8.0772416255  3.1362517625  7.6516990270
Li  2.5540702045  6.3106780865  9.3422949175
Li  7.0073431670  4.7234649245  14.0237313840
Mg  11.6724396980  7.8680832615  23.3599461230
Mg  2.3422466360  1.5788465875  4.6875166450
6
scale = 2.20000
Li  3.4620576320  0.0000000000  11.3105262380
Li  8.2650844540  3.2091878500  7.8296455160
Li  2.6134671860  6.4574380420  9.5595575900
Li  7.1703046360  4.8333129460  14.3498646720
Mg  11.9438917840  8.0510619420  23.9032006840
Mg  2.3967174880  1.6155639500  4.7965286600
6
scale = 2.25000
Li  3.5407407600  0.0000000000  11.5675836525
Li  8.4529272825  3.2821239375  8.0075920050
Li  2.6728641675  6.6041979975  9.7768202625
Li  7.3332661050  4.9431609675  14.6759979600
Mg  12.2153438700  8.2340406225  24.4464552450
Mg  2.4511883400  1.6522813125  4.9055406750
6
scale = 2.30000
Li  3.6194238880  0.0000000000  11.8246410670
Li  8.6407701110  3.3550600250  8.1855384940
Li  2.7322611490  6.7509579530  9.9940829350
Li  7.4962275740  5.0530089890  15.0021312480
Mg  12.4867959560  8.4170193030  24.9897098060
Mg  2.5056591920  1.6889986750  5.0145526900
6
scale = 2.35000
Li  3.6981070160  0.0000000000  12.0816984815
Li  8.8286129395  3.4279961125  8.3634849830
Li  2.7916581305  6.8977179085  10.2113456075
Li  7.6591890430  5.1628570105  15.3282645360
Mg  12.7582480420  8.5999979835  25.5329643670
Mg  2.5601300440  1.7257160375  5.1235647050
6
scale = 2.40000
Li  3.7767901440  0.0000000000  12.3387558960
Li  9.0164557680  3.5009322000  8.5414314720
Li  2.8510551120  7.0444778640  10.4286082800
Li  7.8221505120  5.2727050320  15.6543978240
Mg  13.0297001280  8.7829766640  26.0762189280
Mg  2.6146008960  1.7624334000  5.2325767200
6
scale = 2.45000
Li  3.8554732720  0.0000000000  12.5958133105
Li  9.2042985965  3.5738682875  8.7193779610
Li  2.9104520935  7.1912378195  10.6458709525
Li  7.9851119810  5.3825530535  15.9805311120
Mg  13.3011522140  8.9659553445  26.6194734890
Mg  2.6690717480  1.7991507625  5.3415887350
