2
scale = 0.75000
Li  0.9517953750  0.9517953750  0.9517953750
O   0.0000000000  0.0000000000  0.0000000000
2
scale = 0.80000
Li  1.0152484000  1.0152484000  1.0152484000
O   0.0000000000  0.0000000000  0.0000000000
2
scale = 0.85000
Li  1.0787014250  1.0787014250  1.0787014250
O   0.0000000000  0.0000000000  0.0000000000
2
scale = 0.90000
Li  1.1421544500  1.1421544500  1.1421544500
O   0.0000000000  0.0000000000  0.0000000000
2
scale = 0.95000
Li  1.2056074750  1.2056074750  1.2056074750
O   0.0000000000  0.0000000000  0.0000000000
2
scale = 1.00000
Li  1.2690605000  1.2690605000  1.2690605000
O   0.0000000000  0.0000000000  0.0000000000
2
scale = 1.05000
Li  1.3325135250  1.3325135250  1.3325135250
O   0.0000000000  0.0000000000  0.0000000000
2
scale = 1.10000
Li  1.3959665500  1.3959665500  1.3959665500
O   0.0000000000  0.0000000000  0.0000000000
2
scale = 1.15000
Li  1.4594195750  1.4594195750  1.4594195750
O   0.0000000000  0.0000000000  0.0000000000
2
scale = 1.20000
Li  1.5228726000  1.5228726000  1.5228726000
O   0.0000000000  0.0000000000  0.0000000000
2
scale = 1.25000
Li  1.5863256250  1.5863256250  1.5863256250
O   0.0000000000  0.0000000000  0.0000000000
2
scale = 1.30000
Li  1.6497786500  1.6497786500  1.6497786500
O   0.0000000000  0.0000000000  0.0000000000
2
scale = 1.35000
Li  1.7132316750  1.7132316750  1.7132316750
O   0.0000000000  0.0000000000  0.0000000000
2
scale = 1.40000
Li  1.7766847000  1.7766847000  1.7766847000
O   0.0000000000  0.0000000000  0.0000000000
2
scale = 1.45000
Li  1.8401377250  1.8401377250  1.8401377250
O   0.0000000000  0.0000000000  0.0000000000
2
scale = 1.50000
Li  1.9035907500  1.9035907500  1.9035907500
O   0.0000000000  0.0000000000  0.0000000000
2
scale = 1.55000
Li  1.9670437750  1.9670437750  1.9670437750
O   0.0000000000  0.0000000000  0.0000000000
2
scale = 1.60000
Li  2.0304968000  2.0304968000  2.0304968000
O   0.0000000000  0.0000000000  0.0000000000
2
scale = 1.65000
Li  2.0939498250  2.0939498250  2.0939498250
O   0.0000000000  0.0000000000  0.0000000000
2
scale = 1.70000
Li  2.1574028500  2.1574028500  2.1574028500
O   0.0000000000  0.0000000000  0.0000000000
2
scale = 1.75000
Li  2.2208558750  2.2208558750  2.2208558750
O   0.0000000000  0.0000000000  0.0000000000
2
scale = 1.80000
Li  2.2843089000  2.2843089000  2.2843089000
O   0.0000000000  0.0000000000  0.0000000000
2
scale = 1.85000
Li  2.3477619250  2.3477619250  2.3477619250
O   0.0000000000  0.0000000000  0.0000000000
2
scale = 1.90000
Li  2.4112149500  2.4112149500  2.4112149500
O   0.0000000000  0.0000000000  0.0000000000
2
scale = 1.95000
Li  2.4746679750  2.4746679750  2.4746679750
O   0.0000000000  0.0000000000  0.0000000000
2
scale = 2.00000
Li  2.5381210000  2.5381210000  2.5381210000
O   0.0000000000  0.0000000000  0.0000000000
2
scale = 2.05000
Li  2.6015740250  2.6015740250  2.6015740250
O   0.0000000000  0.0000000000  0.0000000000
2
scale = 2.10000
Li  2.6650270500  2.6650270500  2.6650270500
O   0.0000000000  0.0000000000  0.0000000000
2
scale = 2.15000
Li  2.7284800750  2.7284800750  2.7284800750
O   0.0000000000  0.0000000000  0.0000000000
2
scale = 2.20000
Li  2.7919331000  2.7919331000  2.7919331000
O   0.0000000000  0.0000000000  0.0000000000
2
scale = 2.25000
Li  2.8553861250  2.8553861250  2.8553861250
O   0.0000000000  0.0000000000  0.0000000000
2
scale = 2.30000
Li  2.9188391500  2.9188391500  2.9188391500
O   0.0000000000  0.0000000000  0.0000000000
2
scale = 2.35000
Li  2.9822921750  2.9822921750  2.9822921750
O   0.0000000000  0.0000000000  0.0000000000
2
scale = 2.40000
Li  3.0457452000  3.0457452000  3.0457452000
O   0.0000000000  0.0000000000  0.0000000000
2
scale = 2.45000
Li  3.1091982250  3.1091982250  3.1091982250
O   0.0000000000  0.0000000000  0.0000000000
