8
scale = 0.75000
Li  0.0000000000  0.0000000000  0.0000000000
Li  0.0000000000  0.0000000000  2.8387235475
Li  0.0000004950  1.3434800025  1.4193617775
Li  1.1634883125  0.6717399975  4.2580853175
O   0.0000004950  1.3434800025  3.6822154500
O   1.1634883125  0.6717399975  0.8434919025
O   1.1634883125  0.6717399975  1.9952316450
O   0.0000004950  1.3434800025  4.8339551925
8
scale = 0.80000
Li  0.0000000000  0.0000000000  0.0000000000
Li  0.0000000000  0.0000000000  3.0279717840
Li  0.0000005280  1.4330453360  1.5139858960
Li  1.2410542000  0.7165226640  4.5419576720
O   0.0000005280  1.4330453360  3.9276964800
O   1.2410542000  0.7165226640  0.8997246960
O   1.2410542000  0.7165226640  2.1282470880
O   0.0000005280  1.4330453360  5.1562188720
8
scale = 0.85000
Li  0.0000000000  0.0000000000  0.0000000000
Li  0.0000000000  0.0000000000  3.2172200205
Li  0.0000005610  1.5226106695  1.6086100145
Li  1.3186200875  0.7613053305  4.8258300265
O   0.0000005610  1.5226106695  4.1731775100
O   1.3186200875  0.7613053305  0.9559574895
O   1.3186200875  0.7613053305  2.2612625310
O   0.0000005610  1.5226106695  5.4784825515
8
scale = 0.90000
Li  0.0000000000  0.0000000000  0.0000000000
Li  0.0000000000  0.0000000000  3.4064682570
Li  0.0000005940  1.6121760030  1.7032341330
Li  1.3961859750  0.8060879970  5.1097023810
O   0.0000005940  1.6121760030  4.4186585400
O   1.3961859750  0.8060879970  1.0121902830
O   1.3961859750  0.8060879970  2.3942779740
O   0.0000005940  1.6121760030  5.8007462310
8
scale = 0.95000
Li  0.0000000000  0.0000000000  0.0000000000
Li  0.0000000000  0.0000000000  3.5957164935
Li  0.0000006270  1.7017413365  1.7978582515
Li  1.4737518625  0.8508706635  5.3935747355
O   0.0000006270  1.7017413365  4.6641395700
O   1.4737518625  0.8508706635  1.0684230765
O   1.4737518625  0.8508706635  2.5272934170
O   0.0000006270  1.7017413365  6.1230099105
8
scale = 1.00000
Li  0.0000000000  0.0000000000  0.0000000000
Li  0.0000000000  0.0000000000  3.7849647300
Li  0.0000006600  1.7913066700  1.8924823700
Li  1.5513177500  0.8956533300  5.6774470900
O   0.0000006600  1.7913066700  4.9096206000
O   1.5513177500  0.8956533300  1.1246558700
O   1.5513177500  0.8956533300  2.6603088600
O   0.0000006600  1.7913066700  6.4452735900
8
scale = 1.05000
Li  0.0000000000  0.0000000000  0.0000000000
Li  0.0000000000  0.0000000000  3.9742129665
Li  0.0000006930  1.8808720035  1.9871064885
Li  1.6288836375  0.9404359965  5.9613194445
O   0.0000006930  1.8808720035  5.1551016300
O   1.6288836375  0.9404359965  1.1808886635
O   1.6288836375  0.9404359965  2.7933243030
O   0.0000006930  1.8808720035  6.7675372695
8
scale = 1.10000
Li  0.0000000000  0.0000000000  0.0000000000
Li  0.0000000000  0.0000000000  4.1634612030
Li  0.0000007260  1.9704373370  2.0817306070
Li  1.7064495250  0.9852186630  6.2451917990
O   0.0000007260  1.9704373370  5.4005826600
O   1.7064495250  0.9852186630  1.2371214570
O   1.7064495250  0.9852186630  2.9263397460
O   0.0000007260  1.9704373370  7.0898009490
8
scale = 1.15000
Li  0.0000000000  0.0000000000  0.0000000000
Li  0.0000000000  0.0000000000  4.3527094395
Li  0.0000007590  2.0600026705  2.1763547255
Li  1.7840154125  1.0300013295  6.5290641535
O   0.0000007590  2.0600026705  5.6460636900
O   1.7840154125  1.0300013295  1.2933542505
O   1.7840154125  1.0300013295  3.0593551890
O   0.0000007590  2.0600026705  7.4120646285
8
scale = 1.20000
Li  0.0000000000  0.0000000000  0.0000000000
Li  0.0000000000  0.0000000000  4.5419576760
Li  0.0000007920  2.1495680040  2.2709788440
Li  1.8615813000  1.0747839960  6.8129365080
O   0.0000007920  2.1495680040  5.8915447200
O   1.8615813000  1.0747839960  1.3495870440
O   1.8615813000  1.0747839960  3.1923706320
O   0.0000007920  2.1495680040  7.7343283080
8
scale = 1.25000
Li  0.0000000000  0.0000000000  0.0000000000
Li  0.0000000000  0.0000000000  4.7312059125
Li  0.0000008250  2.2391333375  2.3656029625
Li  1.9391471875  1.1195666625  7.0968088625
O   0.0000008250  2.2391333375  6.1370257500
O   1.9391471875  1.1195666625  1.4058198375
O   1.9391471875  1.1195666625  3.3253860750
O   0.0000008250  2.2391333375  8.0565919875
8
scale = 1.30000
Li  0.0000000000  0.0000000000  0.0000000000
Li  0.0000000000  0.0000000000  4.9204541490
Li  0.0000008580  2.3286986710  2.4602270810
Li  2.0167130750  1.1643493290  7.3806812170
O   0.0000008580  2.3286986710  6.3825067800
O   2.0167130750  1.1643493290  1.4620526310
O   2.0167130750  1.1643493290  3.4584015180
O   0.0000008580  2.3286986710  8.3788556670
8
scale = 1.35000
Li  0.0000000000  0.0000000000  0.0000000000
Li  0.0000000000  0.0000000000  5.1097023855
Li  0.0000008910  2.4182640045  2.5548511995
Li  2.0942789625  1.2091319955  7.6645535715
O   0.0000008910  2.4182640045  6.6279878100
O   2.0942789625  1.2091319955  1.5182854245
O   2.0942789625  1.2091319955  3.5914169610
O   0.0000008910  2.4182640045  8.7011193465
8
scale = 1.40000
Li  0.0000000000  0.0000000000  0.0000000000
Li  0.0000000000  0.0000000000  5.2989506220
Li  0.0000009240  2.5078293380  2.6494753180
Li  2.1718448500  1.2539146620  7.9484259260
O   0.0000009240  2.5078293380  6.8734688400
O   2.1718448500  1.2539146620  1.5745182180
O   2.1718448500  1.2539146620  3.7244324040
O   0.0000009240  2.5078293380  9.0233830260
8
scale = 1.45000
Li  0.0000000000  0.0000000000  0.0000000000
Li  0.0000000000  0.0000000000  5.4881988585
Li  0.0000009570  2.5973946715  2.7440994365
Li  2.2494107375  1.2986973285  8.2322982805
O   0.0000009570  2.5973946715  7.1189498700
O   2.2494107375  1.2986973285  1.6307510115
O   2.2494107375  1.2986973285  3.8574478470
O   0.0000009570  2.5973946715  9.3456467055
8
scale = 1.50000
Li  0.0000000000  0.0000000000  0.0000000000
Li  0.0000000000  0.0000000000  5.6774470950
Li  0.0000009900  2.6869600050  2.8387235550
Li  2.3269766250  1.3434799950  8.5161706350
O   0.0000009900  2.6869600050  7.3644309000
O   2.3269766250  1.3434799950  1.6869838050
O   2.3269766250  1.3434799950  3.9904632900
O   0.0000009900  2.6869600050  9.6679103850
8
scale = 1.55000
Li  0.0000000000  0.0000000000  0.0000000000
Li  0.0000000000  0.0000000000  5.8666953315
Li  0.0000010230  2.7765253385  2.9333476735
Li  2.4045425125  1.3882626615  8.8000429895
O   0.0000010230  2.7765253385  7.6099119300
O   2.4045425125  1.3882626615  1.7432165985
O   2.4045425125  1.3882626615  4.1234787330
O   0.0000010230  2.7765253385  9.9901740645
8
scale = 1.60000
Li  0.0000000000  0.0000000000  0.0000000000
Li  0.0000000000  0.0000000000  6.0559435680
Li  0.0000010560  2.8660906720  3.0279717920
Li  2.4821084000  1.4330453280  9.0839153440
O   0.0000010560  2.8660906720  7.8553929600
O   2.4821084000  1.4330453280  1.7994493920
O   2.4821084000  1.4330453280  4.2564941760
O   0.0000010560  2.8660906720  10.3124377440
8
scale = 1.65000
Li  0.0000000000  0.0000000000  0.0000000000
Li  0.0000000000  0.0000000000  6.2451918045
Li  0.0000010890  2.9556560055  3.1225959105
Li  2.5596742875  1.4778279945  9.3677876985
O   0.0000010890  2.9556560055  8.1008739900
O   2.5596742875  1.4778279945  1.8556821855
O   2.5596742875  1.4778279945  4.3895096190
O   0.0000010890  2.9556560055  10.6347014235
8
scale = 1.70000
Li  0.0000000000  0.0000000000  0.0000000000
Li  0.0000000000  0.0000000000  6.4344400410
Li  0.0000011220  3.0452213390  3.2172200290
Li  2.6372401750  1.5226106610  9.6516600530
O   0.0000011220  3.0452213390  8.3463550200
O   2.6372401750  1.5226106610  1.9119149790
O   2.6372401750  1.5226106610  4.5225250620
O   0.0000011220  3.0452213390  10.9569651030
8
scale = 1.75000
Li  0.0000000000  0.0000000000  0.0000000000
Li  0.0000000000  0.0000000000  6.6236882775
Li  0.0000011550  3.1347866725  3.3118441475
Li  2.7148060625  1.5673933275  9.9355324075
O   0.0000011550  3.1347866725  8.5918360500
O   2.7148060625  1.5673933275  1.9681477725
O   2.7148060625  1.5673933275  4.6555405050
O   0.0000011550  3.1347866725  11.2792287825
8
scale = 1.80000
Li  0.0000000000  0.0000000000  0.0000000000
Li  0.0000000000  0.0000000000  6.8129365140
Li  0.0000011880  3.2243520060  3.4064682660
Li  2.7923719500  1.6121759940  10.2194047620
O   0.0000011880  3.2243520060  8.8373170800
O   2.7923719500  1.6121759940  2.0243805660
O   2.7923719500  1.6121759940  4.7885559480
O   0.0000011880  3.2243520060  11.6014924620
8
scale = 1.85000
Li  0.0000000000  0.0000000000  0.0000000000
Li  0.0000000000  0.0000000000  7.0021847505
Li  0.0000012210  3.3139173395  3.5010923845
Li  2.8699378375  1.6569586605  10.5032771165
O   0.0000012210  3.3139173395  9.0827981100
O   2.8699378375  1.6569586605  2.0806133595
O   2.8699378375  1.6569586605  4.9215713910
O   0.0000012210  3.3139173395  11.9237561415
8
scale = 1.90000
Li  0.0000000000  0.0000000000  0.0000000000
Li  0.0000000000  0.0000000000  7.1914329870
Li  0.0000012540  3.4034826730  3.5957165030
Li  2.9475037250  1.7017413270  10.7871494710
O   0.0000012540  3.4034826730  9.3282791400
O   2.9475037250  1.7017413270  2.1368461530
O   2.9475037250  1.7017413270  5.0545868340
O   0.0000012540  3.4034826730  12.2460198210
8
scale = 1.95000
Li  0.0000000000  0.0000000000  0.0000000000
Li  0.0000000000  0.0000000000  7.3806812235
Li  0.0000012870  3.4930480065  3.6903406215
Li  3.0250696125  1.7465239935  11.0710218255
O   0.0000012870  3.4930480065  9.5737601700
O   3.0250696125  1.7465239935  2.1930789465
O   3.0250696125  1.7465239935  5.1876022770
O   0.0000012870  3.4930480065  12.5682835005
8
scale = 2.00000
Li  0.0000000000  0.0000000000  0.0000000000
Li  0.0000000000  0.0000000000  7.5699294600
Li  0.0000013200  3.5826133400  3.7849647400
Li  3.1026355000  1.7913066600  11.3548941800
O   0.0000013200  3.5826133400  9.8192412000
O   3.1026355000  1.7913066600  2.2493117400
O   3.1026355000  1.7913066600  5.3206177200
O   0.0000013200  3.5826133400  12.8905471800
8
scale = 2.05000
Li  0.0000000000  0.0000000000  0.0000000000
Li  0.0000000000  0.0000000000  7.7591776965
Li  0.0000013530  3.6721786735  3.8795888585
Li  3.1802013875  1.8360893265  11.6387665345
O   0.0000013530  3.6721786735  10.0647222300
O   3.1802013875  1.8360893265  2.3055445335
O   3.1802013875  1.8360893265  5.4536331630
O   0.0000013530  3.6721786735  13.2128108595
8
scale = 2.10000
Li  0.0000000000  0.0000000000  0.0000000000
Li  0.0000000000  0.0000000000  7.9484259330
Li  0.0000013860  3.7617440070  3.9742129770
Li  3.2577672750  1.8808719930  11.9226388890
O   0.0000013860  3.7617440070  10.3102032600
O   3.2577672750  1.8808719930  2.3617773270
O   3.2577672750  1.8808719930  5.5866486060
O   0.0000013860  3.7617440070  13.5350745390
8
scale = 2.15000
Li  0.0000000000  0.0000000000  0.0000000000
Li  0.0000000000  0.0000000000  8.1376741695
Li  0.0000014190  3.8513093405  4.0688370955
Li  3.3353331625  1.9256546595  12.2065112435
O   0.0000014190  3.8513093405  10.5556842900
O   3.3353331625  1.9256546595  2.4180101205
O   3.3353331625  1.9256546595  5.7196640490
O   0.0000014190  3.8513093405  13.8573382185
8
scale = 2.20000
Li  0.0000000000  0.0000000000  0.0000000000
Li  0.0000000000  0.0000000000  8.3269224060
Li  0.0000014520  3.9408746740  4.1634612140
Li  3.4128990500  1.9704373260  12.4903835980
O   0.0000014520  3.9408746740  10.8011653200
O   3.4128990500  1.9704373260  2.4742429140
O   3.4128990500  1.9704373260  5.8526794920
O   0.0000014520  3.9408746740  14.1796018980
8
scale = 2.25000
Li  0.0000000000  0.0000000000  0.0000000000
Li  0.0000000000  0.0000000000  8.5161706425
Li  0.0000014850  4.0304400075  4.2580853325
Li  3.4904649375  2.0152199925  12.7742559525
O   0.0000014850  4.0304400075  11.0466463500
O   3.4904649375  2.0152199925  2.5304757075
O   3.4904649375  2.0152199925  5.9856949350
O   0.0000014850  4.0304400075  14.5018655775
8
scale = 2.30000
Li  0.0000000000  0.0000000000  0.0000000000
Li  0.0000000000  0.0000000000  8.7054188790
Li  0.0000015180  4.1200053410  4.3527094510
Li  3.5680308250  2.0600026590  13.0581283070
O   0.0000015180  4.1200053410  11.2921273800
O   3.5680308250  2.0600026590  2.5867085010
O   3.5680308250  2.0600026590  6.1187103780
O   0.0000015180  4.1200053410  14.8241292570
8
scale = 2.35000
Li  0.0000000000  0.0000000000  0.0000000000
Li  0.0000000000  0.0000000000  8.8946671155
Li  0.0000015510  4.2095706745  4.4473335695
Li  3.6455967125  2.1047853255  13.3420006615
O   0.0000015510  4.2095706745  11.5376084100
O   3.6455967125  2.1047853255  2.6429412945
O   3.6455967125  2.1047853255  6.2517258210
O   0.0000015510  4.2095706745  15.1463929365
8
scale = 2.40000
Li  0.0000000000  0.0000000000  0.0000000000
Li  0.0000000000  0.0000000000  9.0839153520
Li  0.0000015840  4.2991360080  4.5419576880
Li  3.7231626000  2.1495679920  13.6258730160
O   0.0000015840  4.2991360080  11.7830894400
O   3.7231626000  2.1495679920  2.6991740880
O   3.7231626000  2.1495679920  6.3847412640
O   0.0000015840  4.2991360080  15.4686566160
8
scale = 2.45000
Li  0.0000000000  0.0000000000  0.0000000000
Li  0.0000000000  0.0000000000  9.2731635885
Li  0.0000016170  4.3887013415  4.6365818065
Li  3.8007284875  2.1943506585  13.9097453705
O   0.0000016170  4.3887013415  12.0285704700
O   3.8007284875  2.1943506585  2.7554068815
O   3.8007284875  2.1943506585  6.5177567070
O   0.0000016170  4.3887013415  15.7909202955
