3
scale = 0.75000
Li  2.1373520625  1.5113362500  3.7020031875
Li  0.7124506875  0.5037787500  1.2340010625
O   0.0000000000  0.0000000000  0.0000000000
3
scale = 0.80000
Li  2.2798422000  1.6120920000  3.9488034000
Li  0.7599474000  0.5373640000  1.3162678000
O   0.0000000000  0.0000000000  0.0000000000
3
scale = 0.85000
Li  2.4223323375  1.7128477500  4.1956036125
Li  0.8074441125  0.5709492500  1.3985345375
O   0.0000000000  0.0000000000  0.0000000000
3
scale = 0.90000
Li  2.5648224750  1.8136035000  4.4424038250
Li  0.8549408250  0.6045345000  1.4808012750
O   0.0000000000  0.0000000000  0.0000000000
3
scale = 0.95000
Li  2.7073126125  1.9143592500  4.6892040375
Li  0.9024375375  0.6381197500  1.5630680125
O   0.0000000000  0.0000000000  0.0000000000
3
scale = 1.00000
Li  2.8498027500  2.0151150000  4.9360042500
Li  0.9499342500  0.6717050000  1.6453347500
O   0.0000000000  0.0000000000  0.0000000000
3
scale = 1.05000
Li  2.9922928875  2.1158707500  5.1828044625
Li  0.9974309625  0.7052902500  1.7276014875
O   0.0000000000  0.0000000000  0.0000000000
3
scale = 1.10000
Li  3.1347830250  2.2166265000  5.4296046750
Li  1.0449276750  0.7388755000  1.8098682250
O   0.0000000000  0.0000000000  0.0000000000
3
scale = 1.15000
Li  3.2772731625  2.3173822500  5.6764048875
Li  1.0924243875  0.7724607500  1.8921349625
O   0.0000000000  0.0000000000  0.0000000000
3
scale = 1.20000
Li  3.4197633000  2.4181380000  5.9232051000
Li  1.1399211000  0.8060460000  1.9744017000
O   0.0000000000  0.0000000000  0.0000000000
3
scale = 1.25000
Li  3.5622534375  2.5188937500  6.1700053125
Li  1.1874178125  0.8396312500  2.0566684375
O   0.0000000000  0.0000000000  0.0000000000
3
scale = 1.30000
Li  3.7047435750  2.6196495000  6.4168055250
Li  1.2349145250  0.8732165000  2.1389351750
O   0.0000000000  0.0000000000  0.0000000000
3
scale = 1.35000
Li  3.8472337125  2.7204052500  6.6636057375
Li  1.2824112375  0.9068017500  2.2212019125
O   0.0000000000  0.0000000000  0.0000000000
3
scale = 1.40000
Li  3.9897238500  2.8211610000  6.9104059500
Li  1.3299079500  0.9403870000  2.3034686500
O   0.0000000000  0.0000000000  0.0000000000
3
scale = 1.45000
Li  4.1322139875  2.9219167500  7.1572061625
Li  1.3774046625  0.9739722500  2.3857353875
O   0.0000000000  0.0000000000  0.0000000000
3
scale = 1.50000
Li  4.2747041250  3.0226725000  7.4040063750
Li  1.4249013750  1.0075575000  2.4680021250
O   0.0000000000  0.0000000000  0.0000000000
3
scale = 1.55000
Li  4.4171942625  3.1234282500  7.6508065875
Li  1.4723980875  1.0411427500  2.5502688625
O   0.0000000000  0.0000000000  0.0000000000
3
scale = 1.60000
Li  4.5596844000  3.2241840000  7.8976068000
Li  1.5198948000  1.0747280000  2.6325356000
O   0.0000000000  0.0000000000  0.0000000000
3
scale = 1.65000
Li  4.7021745375  3.3249397500  8.1444070125
Li  1.5673915125  1.1083132500  2.7148023375
O   0.0000000000  0.0000000000  0.0000000000
3
scale = 1.70000
Li  4.8446646750  3.4256955000  8.3912072250
Li  1.6148882250  1.1418985000  2.7970690750
O   0.0000000000  0.0000000000  0.0000000000
3
scale = 1.75000
Li  4.9871548125  3.5264512500  8.6380074375
Li  1.6623849375  1.1754837500  2.8793358125
O   0.0000000000  0.0000000000  0.0000000000
3
scale = 1.80000
Li  5.1296449500  3.6272070000  8.8848076500
Li  1.7098816500  1.2090690000  2.9616025500
O   0.0000000000  0.0000000000  0.0000000000
3
scale = 1.85000
Li  5.2721350875  3.7279627500  9.1316078625
Li  1.7573783625  1.2426542500  3.0438692875
O   0.0000000000  0.0000000000  0.0000000000
3
scale = 1.90000
Li  5.4146252250  3.8287185000  9.3784080750
Li  1.8048750750  1.2762395000  3.1261360250
O   0.0000000000  0.0000000000  0.0000000000
3
scale = 1.95000
Li  5.5571153625  3.9294742500  9.6252082875
Li  1.8523717875  1.3098247500  3.2084027625
O   0.0000000000  0.0000000000  0.0000000000
3
scale = 2.00000
Li  5.6996055000  4.0302300000  9.8720085000
Li  1.8998685000  1.3434100000  3.2906695000
O   0.0000000000  0.0000000000  0.0000000000
3
scale = 2.05000
Li  5.8420956375  4.1309857500  10.1188087125
Li  1.9473652125  1.3769952500  3.3729362375
O   0.0000000000  0.0000000000  0.0000000000
3
scale = 2.10000
Li  5.9845857750  4.2317415000  10.3656089250
Li  1.9948619250  1.4105805000  3.4552029750
O   0.0000000000  0.0000000000  0.0000000000
3
scale = 2.15000
Li  6.1270759125  4.3324972500  10.6124091375
Li  2.0423586375  1.4441657500  3.5374697125
O   0.0000000000  0.0000000000  0.0000000000
3
scale = 2.20000
Li  6.2695660500  4.4332530000  10.8592093500
Li  2.0898553500  1.4777510000  3.6197364500
O   0.0000000000  0.0000000000  0.0000000000
3
scale = 2.25000
Li  6.4120561875  4.5340087500  11.1060095625
Li  2.1373520625  1.5113362500  3.7020031875
O   0.0000000000  0.0000000000  0.0000000000
3
scale = 2.30000
Li  6.5545463250  4.6347645000  11.3528097750
Li  2.1848487750  1.5449215000  3.7842699250
O   0.0000000000  0.0000000000  0.0000000000
3
scale = 2.35000
Li  6.6970364625  4.7355202500  11.5996099875
Li  2.2323454875  1.5785067500  3.8665366625
O   0.0000000000  0.0000000000  0.0000000000
3
scale = 2.40000
Li  6.8395266000  4.8362760000  11.8464102000
Li  2.2798422000  1.6120920000  3.9488034000
O   0.0000000000  0.0000000000  0.0000000000
3
scale = 2.45000
Li  6.9820167375  4.9370317500  12.0932104125
Li  2.3273389125  1.6456772500  4.0310701375
O   0.0000000000  0.0000000000  0.0000000000
