14
scale = 0.75000
Li  1.1651909700  6.3594406800  2.4997835775
Li  1.1651909700  5.2195306275  6.3594406800
Li  1.1651909700  2.4997835775  1.3598735250
Li  1.1651909700  1.3598735250  5.2195306275
Sn  -0.0000000000  6.1271310825  0.5556562275
Sn  -0.0000000000  1.5921831225  7.1636579775
Sn  -0.0000000000  7.1636579775  6.1271310825
Sn  -0.0000000000  0.5556562275  1.5921831225
Sn  0.0000000000  0.0000000000  3.8596571025
Sn  -0.0000000000  3.8596571025  0.0000000000
Sn  -0.0000000000  5.4518402250  4.4153133300
Sn  -0.0000000000  3.3040008750  5.4518402250
Sn  -0.0000000000  4.4153133300  2.2674739800
Sn  -0.0000000000  2.2674739800  3.3040008750
14
scale = 0.80000
Li  1.2428703680  6.7834033920  2.6664358160
Li  1.2428703680  5.5674993360  6.7834033920
Li  1.2428703680  2.6664358160  1.4505317600
Li  1.2428703680  1.4505317600  5.5674993360
Sn  -0.0000000000  6.5356064880  0.5926999760
Sn  -0.0000000000  1.6983286640  7.6412351760
Sn  -0.0000000000  7.6412351760  6.5356064880
Sn  -0.0000000000  0.5926999760  1.6983286640
Sn  0.0000000000  0.0000000000  4.1169675760
Sn  -0.0000000000  4.1169675760  0.0000000000
Sn  -0.0000000000  5.8152962400  4.7096675520
Sn  -0.0000000000  3.5242676000  5.8152962400
Sn  -0.0000000000  4.7096675520  2.4186389120
Sn  -0.0000000000  2.4186389120  3.5242676000
14
scale = 0.85000
Li  1.3205497660  7.2073661040  2.8330880545
Li  1.3205497660  5.9154680445  7.2073661040
Li  1.3205497660  2.8330880545  1.5411899950
Li  1.3205497660  1.5411899950  5.9154680445
Sn  -0.0000000000  6.9440818935  0.6297437245
Sn  -0.0000000000  1.8044742055  8.1188123745
Sn  -0.0000000000  8.1188123745  6.9440818935
Sn  -0.0000000000  0.6297437245  1.8044742055
Sn  0.0000000000  0.0000000000  4.3742780495
Sn  -0.0000000000  4.3742780495  0.0000000000
Sn  -0.0000000000  6.1787522550  5.0040217740
Sn  -0.0000000000  3.7445343250  6.1787522550
Sn  -0.0000000000  5.0040217740  2.5698038440
Sn  -0.0000000000  2.5698038440  3.7445343250
14
scale = 0.90000
Li  1.3982291640  7.6313288160  2.9997402930
Li  1.3982291640  6.2634367530  7.6313288160
Li  1.3982291640  2.9997402930  1.6318482300
Li  1.3982291640  1.6318482300  6.2634367530
Sn  -0.0000000000  7.3525572990  0.6667874730
Sn  -0.0000000000  1.9106197470  8.5963895730
Sn  -0.0000000000  8.5963895730  7.3525572990
Sn  -0.0000000000  0.6667874730  1.9106197470
Sn  0.0000000000  0.0000000000  4.6315885230
Sn  -0.0000000000  4.6315885230  0.0000000000
Sn  -0.0000000000  6.5422082700  5.2983759960
Sn  -0.0000000000  3.9648010500  6.5422082700
Sn  -0.0000000000  5.2983759960  2.7209687760
Sn  -0.0000000000  2.7209687760  3.9648010500
14
scale = 0.95000
Li  1.4759085620  8.0552915280  3.1663925315
Li  1.4759085620  6.6114054615  8.0552915280
Li  1.4759085620  3.1663925315  1.7225064650
Li  1.4759085620  1.7225064650  6.6114054615
Sn  -0.0000000000  7.7610327045  0.7038312215
Sn  -0.0000000000  2.0167652885  9.0739667715
Sn  -0.0000000000  9.0739667715  7.7610327045
Sn  -0.0000000000  0.7038312215  2.0167652885
Sn  0.0000000000  0.0000000000  4.8888989965
Sn  -0.0000000000  4.8888989965  0.0000000000
Sn  -0.0000000000  6.9056642850  5.5927302180
Sn  -0.0000000000  4.1850677750  6.9056642850
Sn  -0.0000000000  5.5927302180  2.8721337080
Sn  -0.0000000000  2.8721337080  4.1850677750
14
scale = 1.00000
Li  1.5535879600  8.4792542400  3.3330447700
Li  1.5535879600  6.9593741700  8.4792542400
Li  1.5535879600  3.3330447700  1.8131647000
Li  1.5535879600  1.8131647000  6.9593741700
Sn  -0.0000000000  8.1695081100  0.7408749700
Sn  -0.0000000000  2.1229108300  9.5515439700
Sn  -0.0000000000  9.5515439700  8.1695081100
Sn  -0.0000000000  0.7408749700  2.1229108300
Sn  0.0000000000  0.0000000000  5.1462094700
Sn  -0.0000000000  5.1462094700  0.0000000000
Sn  -0.0000000000  7.2691203000  5.8870844400
Sn  -0.0000000000  4.4053345000  7.2691203000
Sn  -0.0000000000  5.8870844400  3.0232986400
Sn  -0.0000000000  3.0232986400  4.4053345000
14
scale = 1.05000
Li  1.6312673580  8.9032169520  3.4996970085
Li  1.6312673580  7.3073428785  8.9032169520
Li  1.6312673580  3.4996970085  1.9038229350
Li  1.6312673580  1.9038229350  7.3073428785
Sn  -0.0000000000  8.5779835155  0.7779187185
Sn  -0.0000000000  2.2290563715  10.0291211685
Sn  -0.0000000000  10.0291211685  8.5779835155
Sn  -0.0000000000  0.7779187185  2.2290563715
Sn  0.0000000000  0.0000000000  5.4035199435
Sn  -0.0000000000  5.4035199435  0.0000000000
Sn  -0.0000000000  7.6325763150  6.1814386620
Sn  -0.0000000000  4.6256012250  7.6325763150
Sn  -0.0000000000  6.1814386620  3.1744635720
Sn  -0.0000000000  3.1744635720  4.6256012250
14
scale = 1.10000
Li  1.7089467560  9.3271796640  3.6663492470
Li  1.7089467560  7.6553115870  9.3271796640
Li  1.7089467560  3.6663492470  1.9944811700
Li  1.7089467560  1.9944811700  7.6553115870
Sn  -0.0000000000  8.9864589210  0.8149624670
Sn  -0.0000000000  2.3352019130  10.5066983670
Sn  -0.0000000000  10.5066983670  8.9864589210
Sn  -0.0000000000  0.8149624670  2.3352019130
Sn  0.0000000000  0.0000000000  5.6608304170
Sn  -0.0000000000  5.6608304170  0.0000000000
Sn  -0.0000000000  7.9960323300  6.4757928840
Sn  -0.0000000000  4.8458679500  7.9960323300
Sn  -0.0000000000  6.4757928840  3.3256285040
Sn  -0.0000000000  3.3256285040  4.8458679500
14
scale = 1.15000
Li  1.7866261540  9.7511423760  3.8330014855
Li  1.7866261540  8.0032802955  9.7511423760
Li  1.7866261540  3.8330014855  2.0851394050
Li  1.7866261540  2.0851394050  8.0032802955
Sn  -0.0000000000  9.3949343265  0.8520062155
Sn  -0.0000000000  2.4413474545  10.9842755655
Sn  -0.0000000000  10.9842755655  9.3949343265
Sn  -0.0000000000  0.8520062155  2.4413474545
Sn  0.0000000000  0.0000000000  5.9181408905
Sn  -0.0000000000  5.9181408905  0.0000000000
Sn  -0.0000000000  8.3594883450  6.7701471060
Sn  -0.0000000000  5.0661346750  8.3594883450
Sn  -0.0000000000  6.7701471060  3.4767934360
Sn  -0.0000000000  3.4767934360  5.0661346750
14
scale = 1.20000
Li  1.8643055520  10.1751050880  3.9996537240
Li  1.8643055520  8.3512490040  10.1751050880
Li  1.8643055520  3.9996537240  2.1757976400
Li  1.8643055520  2.1757976400  8.3512490040
Sn  -0.0000000000  9.8034097320  0.8890499640
Sn  -0.0000000000  2.5474929960  11.4618527640
Sn  -0.0000000000  11.4618527640  9.8034097320
Sn  -0.0000000000  0.8890499640  2.5474929960
Sn  0.0000000000  0.0000000000  6.1754513640
Sn  -0.0000000000  6.1754513640  0.0000000000
Sn  -0.0000000000  8.7229443600  7.0645013280
Sn  -0.0000000000  5.2864014000  8.7229443600
Sn  -0.0000000000  7.0645013280  3.6279583680
Sn  -0.0000000000  3.6279583680  5.2864014000
14
scale = 1.25000
Li  1.9419849500  10.5990678000  4.1663059625
Li  1.9419849500  8.6992177125  10.5990678000
Li  1.9419849500  4.1663059625  2.2664558750
Li  1.9419849500  2.2664558750  8.6992177125
Sn  -0.0000000000  10.2118851375  0.9260937125
Sn  -0.0000000000  2.6536385375  11.9394299625
Sn  -0.0000000000  11.9394299625  10.2118851375
Sn  -0.0000000000  0.9260937125  2.6536385375
Sn  0.0000000000  0.0000000000  6.4327618375
Sn  -0.0000000000  6.4327618375  0.0000000000
Sn  -0.0000000000  9.0864003750  7.3588555500
Sn  -0.0000000000  5.5066681250  9.0864003750
Sn  -0.0000000000  7.3588555500  3.7791233000
Sn  -0.0000000000  3.7791233000  5.5066681250
14
scale = 1.30000
Li  2.0196643480  11.0230305120  4.3329582010
Li  2.0196643480  9.0471864210  11.0230305120
Li  2.0196643480  4.3329582010  2.3571141100
Li  2.0196643480  2.3571141100  9.0471864210
Sn  -0.0000000000  10.6203605430  0.9631374610
Sn  -0.0000000000  2.7597840790  12.4170071610
Sn  -0.0000000000  12.4170071610  10.6203605430
Sn  -0.0000000000  0.9631374610  2.7597840790
Sn  0.0000000000  0.0000000000  6.6900723110
Sn  -0.0000000000  6.6900723110  0.0000000000
Sn  -0.0000000000  9.4498563900  7.6532097720
Sn  -0.0000000000  5.7269348500  9.4498563900
Sn  -0.0000000000  7.6532097720  3.9302882320
Sn  -0.0000000000  3.9302882320  5.7269348500
14
scale = 1.35000
Li  2.0973437460  11.4469932240  4.4996104395
Li  2.0973437460  9.3951551295  11.4469932240
Li  2.0973437460  4.4996104395  2.4477723450
Li  2.0973437460  2.4477723450  9.3951551295
Sn  -0.0000000000  11.0288359485  1.0001812095
Sn  -0.0000000000  2.8659296205  12.8945843595
Sn  -0.0000000000  12.8945843595  11.0288359485
Sn  -0.0000000000  1.0001812095  2.8659296205
Sn  0.0000000000  0.0000000000  6.9473827845
Sn  -0.0000000000  6.9473827845  0.0000000000
Sn  -0.0000000000  9.8133124050  7.9475639940
Sn  -0.0000000000  5.9472015750  9.8133124050
Sn  -0.0000000000  7.9475639940  4.0814531640
Sn  -0.0000000000  4.0814531640  5.9472015750
14
scale = 1.40000
Li  2.1750231440  11.8709559360  4.6662626780
Li  2.1750231440  9.7431238380  11.8709559360
Li  2.1750231440  4.6662626780  2.5384305800
Li  2.1750231440  2.5384305800  9.7431238380
Sn  -0.0000000000  11.4373113540  1.0372249580
Sn  -0.0000000000  2.9720751620  13.3721615580
Sn  -0.0000000000  13.3721615580  11.4373113540
Sn  -0.0000000000  1.0372249580  2.9720751620
Sn  0.0000000000  0.0000000000  7.2046932580
Sn  -0.0000000000  7.2046932580  0.0000000000
Sn  -0.0000000000  10.1767684200  8.2419182160
Sn  -0.0000000000  6.1674683000  10.1767684200
Sn  -0.0000000000  8.2419182160  4.2326180960
Sn  -0.0000000000  4.2326180960  6.1674683000
14
scale = 1.45000
Li  2.2527025420  12.2949186480  4.8329149165
Li  2.2527025420  10.0910925465  12.2949186480
Li  2.2527025420  4.8329149165  2.6290888150
Li  2.2527025420  2.6290888150  10.0910925465
Sn  -0.0000000000  11.8457867595  1.0742687065
Sn  -0.0000000000  3.0782207035  13.8497387565
Sn  -0.0000000000  13.8497387565  11.8457867595
Sn  -0.0000000000  1.0742687065  3.0782207035
Sn  0.0000000000  0.0000000000  7.4620037315
Sn  -0.0000000000  7.4620037315  0.0000000000
Sn  -0.0000000000  10.5402244350  8.5362724380
Sn  -0.0000000000  6.3877350250  10.5402244350
Sn  -0.0000000000  8.5362724380  4.3837830280
Sn  -0.0000000000  4.3837830280  6.3877350250
14
scale = 1.50000
Li  2.3303819400  12.7188813600  4.9995671550
Li  2.3303819400  10.4390612550  12.7188813600
Li  2.3303819400  4.9995671550  2.7197470500
Li  2.3303819400  2.7197470500  10.4390612550
Sn  -0.0000000000  12.2542621650  1.1113124550
Sn  -0.0000000000  3.1843662450  14.3273159550
Sn  -0.0000000000  14.3273159550  12.2542621650
Sn  -0.0000000000  1.1113124550  3.1843662450
Sn  0.0000000000  0.0000000000  7.7193142050
Sn  -0.0000000000  7.7193142050  0.0000000000
Sn  -0.0000000000  10.9036804500  8.8306266600
Sn  -0.0000000000  6.6080017500  10.9036804500
Sn  -0.0000000000  8.8306266600  4.5349479600
Sn  -0.0000000000  4.5349479600  6.6080017500
14
scale = 1.55000
Li  2.4080613380  13.1428440720  5.1662193935
Li  2.4080613380  10.7870299635  13.1428440720
Li  2.4080613380  5.1662193935  2.8104052850
Li  2.4080613380  2.8104052850  10.7870299635
Sn  -0.0000000000  12.6627375705  1.1483562035
Sn  -0.0000000000  3.2905117865  14.8048931535
Sn  -0.0000000000  14.8048931535  12.6627375705
Sn  -0.0000000000  1.1483562035  3.2905117865
Sn  0.0000000000  0.0000000000  7.9766246785
Sn  -0.0000000000  7.9766246785  0.0000000000
Sn  -0.0000000000  11.2671364650  9.1249808820
Sn  -0.0000000000  6.8282684750  11.2671364650
Sn  -0.0000000000  9.1249808820  4.6861128920
Sn  -0.0000000000  4.6861128920  6.8282684750
14
scale = 1.60000
Li  2.4857407360  13.5668067840  5.3328716320
Li  2.4857407360  11.1349986720  13.5668067840
Li  2.4857407360  5.3328716320  2.9010635200
Li  2.4857407360  2.9010635200  11.1349986720
Sn  -0.0000000000  13.0712129760  1.1853999520
Sn  -0.0000000000  3.3966573280  15.2824703520
Sn  -0.0000000000  15.2824703520  13.0712129760
Sn  -0.0000000000  1.1853999520  3.3966573280
Sn  0.0000000000  0.0000000000  8.2339351520
Sn  -0.0000000000  8.2339351520  0.0000000000
Sn  -0.0000000000  11.6305924800  9.4193351040
Sn  -0.0000000000  7.0485352000  11.6305924800
Sn  -0.0000000000  9.4193351040  4.8372778240
Sn  -0.0000000000  4.8372778240  7.0485352000
14
scale = 1.65000
Li  2.5634201340  13.9907694960  5.4995238705
Li  2.5634201340  11.4829673805  13.9907694960
Li  2.5634201340  5.4995238705  2.9917217550
Li  2.5634201340  2.9917217550  11.4829673805
Sn  -0.0000000000  13.4796883815  1.2224437005
Sn  -0.0000000000  3.5028028695  15.7600475505
Sn  -0.0000000000  15.7600475505  13.4796883815
Sn  -0.0000000000  1.2224437005  3.5028028695
Sn  0.0000000000  0.0000000000  8.4912456255
Sn  -0.0000000000  8.4912456255  0.0000000000
Sn  -0.0000000000  11.9940484950  9.7136893260
Sn  -0.0000000000  7.2688019250  11.9940484950
Sn  -0.0000000000  9.7136893260  4.9884427560
Sn  -0.0000000000  4.9884427560  7.2688019250
14
scale = 1.70000
Li  2.6410995320  14.4147322080  5.6661761090
Li  2.6410995320  11.8309360890  14.4147322080
Li  2.6410995320  5.6661761090  3.0823799900
Li  2.6410995320  3.0823799900  11.8309360890
Sn  -0.0000000000  13.8881637870  1.2594874490
Sn  -0.0000000000  3.6089484110  16.2376247490
Sn  -0.0000000000  16.2376247490  13.8881637870
Sn  -0.0000000000  1.2594874490  3.6089484110
Sn  0.0000000000  0.0000000000  8.7485560990
Sn  -0.0000000000  8.7485560990  0.0000000000
Sn  -0.0000000000  12.3575045100  10.0080435480
Sn  -0.0000000000  7.4890686500  12.3575045100
Sn  -0.0000000000  10.0080435480  5.1396076880
Sn  -0.0000000000  5.1396076880  7.4890686500
14
scale = 1.75000
Li  2.7187789300  14.8386949200  5.8328283475
Li  2.7187789300  12.1789047975  14.8386949200
Li  2.7187789300  5.8328283475  3.1730382250
Li  2.7187789300  3.1730382250  12.1789047975
Sn  -0.0000000000  14.2966391925  1.2965311975
Sn  -0.0000000000  3.7150939525  16.7152019475
Sn  -0.0000000000  16.7152019475  14.2966391925
Sn  -0.0000000000  1.2965311975  3.7150939525
Sn  0.0000000000  0.0000000000  9.0058665725
Sn  -0.0000000000  9.0058665725  0.0000000000
Sn  -0.0000000000  12.7209605250  10.3023977700
Sn  -0.0000000000  7.7093353750  12.7209605250
Sn  -0.0000000000  10.3023977700  5.2907726200
Sn  -0.0000000000  5.2907726200  7.7093353750
14
scale = 1.80000
Li  2.7964583280  15.2626576320  5.9994805860
Li  2.7964583280  12.5268735060  15.2626576320
Li  2.7964583280  5.9994805860  3.2636964600
Li  2.7964583280  3.2636964600  12.5268735060
Sn  -0.0000000000  14.7051145980  1.3335749460
Sn  -0.0000000000  3.8212394940  17.1927791460
Sn  -0.0000000000  17.1927791460  14.7051145980
Sn  -0.0000000000  1.3335749460  3.8212394940
Sn  0.0000000000  0.0000000000  9.2631770460
Sn  -0.0000000000  9.2631770460  0.0000000000
Sn  -0.0000000000  13.0844165400  10.5967519920
Sn  -0.0000000000  7.9296021000  13.0844165400
Sn  -0.0000000000  10.5967519920  5.4419375520
Sn  -0.0000000000  5.4419375520  7.9296021000
14
scale = 1.85000
Li  2.8741377260  15.6866203440  6.1661328245
Li  2.8741377260  12.8748422145  15.6866203440
Li  2.8741377260  6.1661328245  3.3543546950
Li  2.8741377260  3.3543546950  12.8748422145
Sn  -0.0000000000  15.1135900035  1.3706186945
Sn  -0.0000000000  3.9273850355  17.6703563445
Sn  -0.0000000000  17.6703563445  15.1135900035
Sn  -0.0000000000  1.3706186945  3.9273850355
Sn  0.0000000000  0.0000000000  9.5204875195
Sn  -0.0000000000  9.5204875195  0.0000000000
Sn  -0.0000000000  13.4478725550  10.8911062140
Sn  -0.0000000000  8.1498688250  13.4478725550
Sn  -0.0000000000  10.8911062140  5.5931024840
Sn  -0.0000000000  5.5931024840  8.1498688250
14
scale = 1.90000
Li  2.9518171240  16.1105830560  6.3327850630
Li  2.9518171240  13.2228109230  16.1105830560
Li  2.9518171240  6.3327850630  3.4450129300
Li  2.9518171240  3.4450129300  13.2228109230
Sn  -0.0000000000  15.5220654090  1.4076624430
Sn  -0.0000000000  4.0335305770  18.1479335430
Sn  -0.0000000000  18.1479335430  15.5220654090
Sn  -0.0000000000  1.4076624430  4.0335305770
Sn  0.0000000000  0.0000000000  9.7777979930
Sn  -0.0000000000  9.7777979930  0.0000000000
Sn  -0.0000000000  13.8113285700  11.1854604360
Sn  -0.0000000000  8.3701355500  13.8113285700
Sn  -0.0000000000  11.1854604360  5.7442674160
Sn  -0.0000000000  5.7442674160  8.3701355500
14
scale = 1.95000
Li  3.0294965220  16.5345457680  6.4994373015
Li  3.0294965220  13.5707796315  16.5345457680
Li  3.0294965220  6.4994373015  3.5356711650
Li  3.0294965220  3.5356711650  13.5707796315
Sn  -0.0000000000  15.9305408145  1.4447061915
Sn  -0.0000000000  4.1396761185  18.6255107415
Sn  -0.0000000000  18.6255107415  15.9305408145
Sn  -0.0000000000  1.4447061915  4.1396761185
Sn  0.0000000000  0.0000000000  10.0351084665
Sn  -0.0000000000  10.0351084665  0.0000000000
Sn  -0.0000000000  14.1747845850  11.4798146580
Sn  -0.0000000000  8.5904022750  14.1747845850
Sn  -0.0000000000  11.4798146580  5.8954323480
Sn  -0.0000000000  5.8954323480  8.5904022750
14
scale = 2.00000
Li  3.1071759200  16.9585084800  6.6660895400
Li  3.1071759200  13.9187483400  16.9585084800
Li  3.1071759200  6.6660895400  3.6263294000
Li  3.1071759200  3.6263294000  13.9187483400
Sn  -0.0000000000  16.3390162200  1.4817499400
Sn  -0.0000000000  4.2458216600  19.1030879400
Sn  -0.0000000000  19.1030879400  16.3390162200
Sn  -0.0000000000  1.4817499400  4.2458216600
Sn  0.0000000000  0.0000000000  10.2924189400
Sn  -0.0000000000  10.2924189400  0.0000000000
Sn  -0.0000000000  14.5382406000  11.7741688800
Sn  -0.0000000000  8.8106690000  14.5382406000
Sn  -0.0000000000  11.7741688800  6.0465972800
Sn  -0.0000000000  6.0465972800  8.8106690000
14
scale = 2.05000
Li  3.1848553180  17.3824711920  6.8327417785
Li  3.1848553180  14.2667170485  17.3824711920
Li  3.1848553180  6.8327417785  3.7169876350
Li  3.1848553180  3.7169876350  14.2667170485
Sn  -0.0000000000  16.7474916255  1.5187936885
Sn  -0.0000000000  4.3519672015  19.5806651385
Sn  -0.0000000000  19.5806651385  16.7474916255
Sn  -0.0000000000  1.5187936885  4.3519672015
Sn  0.0000000000  0.0000000000  10.5497294135
Sn  -0.0000000000  10.5497294135  0.0000000000
Sn  -0.0000000000  14.9016966150  12.0685231020
Sn  -0.0000000000  9.0309357250  14.9016966150
Sn  -0.0000000000  12.0685231020  6.1977622120
Sn  -0.0000000000  6.1977622120  9.0309357250
14
scale = 2.10000
Li  3.2625347160  17.8064339040  6.9993940170
Li  3.2625347160  14.6146857570  17.8064339040
Li  3.2625347160  6.9993940170  3.8076458700
Li  3.2625347160  3.8076458700  14.6146857570
Sn  -0.0000000000  17.1559670310  1.5558374370
Sn  -0.0000000000  4.4581127430  20.0582423370
Sn  -0.0000000000  20.0582423370  17.1559670310
Sn  -0.0000000000  1.5558374370  4.4581127430
Sn  0.0000000000  0.0000000000  10.8070398870
Sn  -0.0000000000  10.8070398870  0.0000000000
Sn  -0.0000000000  15.2651526300  12.3628773240
Sn  -0.0000000000  9.2512024500  15.2651526300
Sn  -0.0000000000  12.3628773240  6.3489271440
Sn  -0.0000000000  6.3489271440  9.2512024500
14
scale = 2.15000
Li  3.3402141140  18.2303966160  7.1660462555
Li  3.3402141140  14.9626544655  18.2303966160
Li  3.3402141140  7.1660462555  3.8983041050
Li  3.3402141140  3.8983041050  14.9626544655
Sn  -0.0000000000  17.5644424365  1.5928811855
Sn  -0.0000000000  4.5642582845  20.5358195355
Sn  -0.0000000000  20.5358195355  17.5644424365
Sn  -0.0000000000  1.5928811855  4.5642582845
Sn  0.0000000000  0.0000000000  11.0643503605
Sn  -0.0000000000  11.0643503605  0.0000000000
Sn  -0.0000000000  15.6286086450  12.6572315460
Sn  -0.0000000000  9.4714691750  15.6286086450
Sn  -0.0000000000  12.6572315460  6.5000920760
Sn  -0.0000000000  6.5000920760  9.4714691750
14
scale = 2.20000
Li  3.4178935120  18.6543593280  7.3326984940
Li  3.4178935120  15.3106231740  18.6543593280
Li  3.4178935120  7.3326984940  3.9889623400
Li  3.4178935120  3.9889623400  15.3106231740
Sn  -0.0000000000  17.9729178420  1.6299249340
Sn  -0.0000000000  4.6704038260  21.0133967340
Sn  -0.0000000000  21.0133967340  17.9729178420
Sn  -0.0000000000  1.6299249340  4.6704038260
Sn  0.0000000000  0.0000000000  11.3216608340
Sn  -0.0000000000  11.3216608340  0.0000000000
Sn  -0.0000000000  15.9920646600  12.9515857680
Sn  -0.0000000000  9.6917359000  15.9920646600
Sn  -0.0000000000  12.9515857680  6.6512570080
Sn  -0.0000000000  6.6512570080  9.6917359000
14
scale = 2.25000
Li  3.4955729100  19.0783220400  7.4993507325
Li  3.4955729100  15.6585918825  19.0783220400
Li  3.4955729100  7.4993507325  4.0796205750
Li  3.4955729100  4.0796205750  15.6585918825
Sn  -0.0000000000  18.3813932475  1.6669686825
Sn  -0.0000000000  4.7765493675  21.4909739325
Sn  -0.0000000000  21.4909739325  18.3813932475
Sn  -0.0000000000  1.6669686825  4.7765493675
Sn  0.0000000000  0.0000000000  11.5789713075
Sn  -0.0000000000  11.5789713075  0.0000000000
Sn  -0.0000000000  16.3555206750  13.2459399900
Sn  -0.0000000000  9.9120026250  16.3555206750
Sn  -0.0000000000  13.2459399900  6.8024219400
Sn  -0.0000000000  6.8024219400  9.9120026250
14
scale = 2.30000
Li  3.5732523080  19.5022847520  7.6660029710
Li  3.5732523080  16.0065605910  19.5022847520
Li  3.5732523080  7.6660029710  4.1702788100
Li  3.5732523080  4.1702788100  16.0065605910
Sn  -0.0000000000  18.7898686530  1.7040124310
Sn  -0.0000000000  4.8826949090  21.9685511310
Sn  -0.0000000000  21.9685511310  18.7898686530
Sn  -0.0000000000  1.7040124310  4.8826949090
Sn  0.0000000000  0.0000000000  11.8362817810
Sn  -0.0000000000  11.8362817810  0.0000000000
Sn  -0.0000000000  16.7189766900  13.5402942120
Sn  -0.0000000000  10.1322693500  16.7189766900
Sn  -0.0000000000  13.5402942120  6.9535868720
Sn  -0.0000000000  6.9535868720  10.1322693500
14
scale = 2.35000
Li  3.6509317060  19.9262474640  7.8326552095
Li  3.6509317060  16.3545292995  19.9262474640
Li  3.6509317060  7.8326552095  4.2609370450
Li  3.6509317060  4.2609370450  16.3545292995
Sn  -0.0000000000  19.1983440585  1.7410561795
Sn  -0.0000000000  4.9888404505  22.4461283295
Sn  -0.0000000000  22.4461283295  19.1983440585
Sn  -0.0000000000  1.7410561795  4.9888404505
Sn  0.0000000000  0.0000000000  12.0935922545
Sn  -0.0000000000  12.0935922545  0.0000000000
Sn  -0.0000000000  17.0824327050  13.8346484340
Sn  -0.0000000000  10.3525360750  17.0824327050
Sn  -0.0000000000  13.8346484340  7.1047518040
Sn  -0.0000000000  7.1047518040  10.3525360750
14
scale = 2.40000
Li  3.7286111040  20.3502101760  7.9993074480
Li  3.7286111040  16.7024980080  20.3502101760
Li  3.7286111040  7.9993074480  4.3515952800
Li  3.7286111040  4.3515952800  16.7024980080
Sn  -0.0000000000  19.6068194640  1.7780999280
Sn  -0.0000000000  5.0949859920  22.9237055280
Sn  -0.0000000000  22.9237055280  19.6068194640
Sn  -0.0000000000  1.7780999280  5.0949859920
Sn  0.0000000000  0.0000000000  12.3509027280
Sn  -0.0000000000  12.3509027280  0.0000000000
Sn  -0.0000000000  17.4458887200  14.1290026560
Sn  -0.0000000000  10.5728028000  17.4458887200
Sn  -0.0000000000  14.1290026560  7.2559167360
Sn  -0.0000000000  7.2559167360  10.5728028000
14
scale = 2.45000
Li  3.8062905020  20.7741728880  8.1659596865
Li  3.8062905020  17.0504667165  20.7741728880
Li  3.8062905020  8.1659596865  4.4422535150
Li  3.8062905020  4.4422535150  17.0504667165
Sn  -0.0000000000  20.0152948695  1.8151436765
Sn  -0.0000000000  5.2011315335  23.4012827265
Sn  -0.0000000000  23.4012827265  20.0152948695
Sn  -0.0000000000  1.8151436765  5.2011315335
Sn  0.0000000000  0.0000000000  12.6082132015
Sn  -0.0000000000  12.6082132015  0.0000000000
Sn  -0.0000000000  17.8093447350  14.4233568780
Sn  -0.0000000000  10.7930695250  17.8093447350
Sn  -0.0000000000  14.4233568780  7.4070816680
Sn  -0.0000000000  7.4070816680  10.7930695250
