3
scale = 0.75000
Li  0.9972100425  0.7051340625  1.7272184475
Li  2.9916301350  2.1154021950  5.1816553500
Te  0.0000000000  0.0000000000  0.0000000000
3
scale = 0.80000
Li  1.0636907120  0.7521430000  1.8423663440
Li  3.1910721440  2.2564290080  5.5270990400
Te  0.0000000000  0.0000000000  0.0000000000
3
scale = 0.85000
Li  1.1301713815  0.7991519375  1.9575142405
Li  3.3905141530  2.3974558210  5.8725427300
Te  0.0000000000  0.0000000000  0.0000000000
3
scale = 0.90000
Li  1.1966520510  0.8461608750  2.0726621370
Li  3.5899561620  2.5384826340  6.2179864200
Te  0.0000000000  0.0000000000  0.0000000000
3
scale = 0.95000
Li  1.2631327205  0.8931698125  2.1878100335
Li  3.7893981710  2.6795094470  6.5634301100
Te  0.0000000000  0.0000000000  0.0000000000
3
scale = 1.00000
Li  1.3296133900  0.9401787500  2.3029579300
Li  3.9888401800  2.8205362600  6.9088738000
Te  0.0000000000  0.0000000000  0.0000000000
3
scale = 1.05000
Li  1.3960940595  0.9871876875  2.4181058265
Li  4.1882821890  2.9615630730  7.2543174900
Te  0.0000000000  0.0000000000  0.0000000000
3
scale = 1.10000
Li  1.4625747290  1.0341966250  2.5332537230
Li  4.3877241980  3.1025898860  7.5997611800
Te  0.0000000000  0.0000000000  0.0000000000
3
scale = 1.15000
Li  1.5290553985  1.0812055625  2.6484016195
Li  4.5871662070  3.2436166990  7.9452048700
Te  0.0000000000  0.0000000000  0.0000000000
3
scale = 1.20000
Li  1.5955360680  1.1282145000  2.7635495160
Li  4.7866082160  3.3846435120  8.2906485600
Te  0.0000000000  0.0000000000  0.0000000000
3
scale = 1.25000
Li  1.6620167375  1.1752234375  2.8786974125
Li  4.9860502250  3.5256703250  8.6360922500
Te  0.0000000000  0.0000000000  0.0000000000
3
scale = 1.30000
Li  1.7284974070  1.2222323750  2.9938453090
Li  5.1854922340  3.6666971380  8.9815359400
Te  0.0000000000  0.0000000000  0.0000000000
3
scale = 1.35000
Li  1.7949780765  1.2692413125  3.1089932055
Li  5.3849342430  3.8077239510  9.3269796300
Te  0.0000000000  0.0000000000  0.0000000000
3
scale = 1.40000
Li  1.8614587460  1.3162502500  3.2241411020
Li  5.5843762520  3.9487507640  9.6724233200
Te  0.0000000000  0.0000000000  0.0000000000
3
scale = 1.45000
Li  1.9279394155  1.3632591875  3.3392889985
Li  5.7838182610  4.0897775770  10.0178670100
Te  0.0000000000  0.0000000000  0.0000000000
3
scale = 1.50000
Li  1.9944200850  1.4102681250  3.4544368950
Li  5.9832602700  4.2308043900  10.3633107000
Te  0.0000000000  0.0000000000  0.0000000000
3
scale = 1.55000
Li  2.0609007545  1.4572770625  3.5695847915
Li  6.1827022790  4.3718312030  10.7087543900
Te  0.0000000000  0.0000000000  0.0000000000
3
scale = 1.60000
Li  2.1273814240  1.5042860000  3.6847326880
Li  6.3821442880  4.5128580160  11.0541980800
Te  0.0000000000  0.0000000000  0.0000000000
3
scale = 1.65000
Li  2.1938620935  1.5512949375  3.7998805845
Li  6.5815862970  4.6538848290  11.3996417700
Te  0.0000000000  0.0000000000  0.0000000000
3
scale = 1.70000
Li  2.2603427630  1.5983038750  3.9150284810
Li  6.7810283060  4.7949116420  11.7450854600
Te  0.0000000000  0.0000000000  0.0000000000
3
scale = 1.75000
Li  2.3268234325  1.6453128125  4.0301763775
Li  6.9804703150  4.9359384550  12.0905291500
Te  0.0000000000  0.0000000000  0.0000000000
3
scale = 1.80000
Li  2.3933041020  1.6923217500  4.1453242740
Li  7.1799123240  5.0769652680  12.4359728400
Te  0.0000000000  0.0000000000  0.0000000000
3
scale = 1.85000
Li  2.4597847715  1.7393306875  4.2604721705
Li  7.3793543330  5.2179920810  12.7814165300
Te  0.0000000000  0.0000000000  0.0000000000
3
scale = 1.90000
Li  2.5262654410  1.7863396250  4.3756200670
Li  7.5787963420  5.3590188940  13.1268602200
Te  0.0000000000  0.0000000000  0.0000000000
3
scale = 1.95000
Li  2.5927461105  1.8333485625  4.4907679635
Li  7.7782383510  5.5000457070  13.4723039100
Te  0.0000000000  0.0000000000  0.0000000000
3
scale = 2.00000
Li  2.6592267800  1.8803575000  4.6059158600
Li  7.9776803600  5.6410725200  13.8177476000
Te  0.0000000000  0.0000000000  0.0000000000
3
scale = 2.05000
Li  2.7257074495  1.9273664375  4.7210637565
Li  8.1771223690  5.7820993330  14.1631912900
Te  0.0000000000  0.0000000000  0.0000000000
3
scale = 2.10000
Li  2.7921881190  1.9743753750  4.8362116530
Li  8.3765643780  5.9231261460  14.5086349800
Te  0.0000000000  0.0000000000  0.0000000000
3
scale = 2.15000
Li  2.8586687885  2.0213843125  4.9513595495
Li  8.5760063870  6.0641529590  14.8540786700
Te  0.0000000000  0.0000000000  0.0000000000
3
scale = 2.20000
Li  2.9251494580  2.0683932500  5.0665074460
Li  8.7754483960  6.2051797720  15.1995223600
Te  0.0000000000  0.0000000000  0.0000000000
3
scale = 2.25000
Li  2.9916301275  2.1154021875  5.1816553425
Li  8.9748904050  6.3462065850  15.5449660500
Te  0.0000000000  0.0000000000  0.0000000000
3
scale = 2.30000
Li  3.0581107970  2.1624111250  5.2968032390
Li  9.1743324140  6.4872333980  15.8904097400
Te  0.0000000000  0.0000000000  0.0000000000
3
scale = 2.35000
Li  3.1245914665  2.2094200625  5.4119511355
Li  9.3737744230  6.6282602110  16.2358534300
Te  0.0000000000  0.0000000000  0.0000000000
3
scale = 2.40000
Li  3.1910721360  2.2564290000  5.5270990320
Li  9.5732164320  6.7692870240  16.5812971200
Te  0.0000000000  0.0000000000  0.0000000000
3
scale = 2.45000
Li  3.2575528055  2.3034379375  5.6422469285
Li  9.7726584410  6.9103138370  16.9267408100
Te  0.0000000000  0.0000000000  0.0000000000
