5
scale = 0.75000
Li  2.5276294125  1.6612343475  5.5608152325
Li  1.7006622450  1.1177265600  3.7414774725
Li  0.0000000000  0.0000000000  0.0000000000
Al  0.8302328025  0.5456540625  1.8265221975
Al  3.3980588475  2.2333068450  7.4757705075
5
scale = 0.80000
Li  2.6961380400  1.7719833040  5.9315362480
Li  1.8140397280  1.1922416640  3.9909093040
Li  0.0000000000  0.0000000000  0.0000000000
Al  0.8855816560  0.5820310000  1.9482903440
Al  3.6245961040  2.3821939680  7.9741552080
5
scale = 0.85000
Li  2.8646466675  1.8827322605  6.3022572635
Li  1.9274172110  1.2667567680  4.2403411355
Li  0.0000000000  0.0000000000  0.0000000000
Al  0.9409305095  0.6184079375  2.0700584905
Al  3.8511333605  2.5310810910  8.4725399085
5
scale = 0.90000
Li  3.0331552950  1.9934812170  6.6729782790
Li  2.0407946940  1.3412718720  4.4897729670
Li  0.0000000000  0.0000000000  0.0000000000
Al  0.9962793630  0.6547848750  2.1918266370
Al  4.0776706170  2.6799682140  8.9709246090
5
scale = 0.95000
Li  3.2016639225  2.1042301735  7.0436992945
Li  2.1541721770  1.4157869760  4.7392047985
Li  0.0000000000  0.0000000000  0.0000000000
Al  1.0516282165  0.6911618125  2.3135947835
Al  4.3042078735  2.8288553370  9.4693093095
5
scale = 1.00000
Li  3.3701725500  2.2149791300  7.4144203100
Li  2.2675496600  1.4903020800  4.9886366300
Li  0.0000000000  0.0000000000  0.0000000000
Al  1.1069770700  0.7275387500  2.4353629300
Al  4.5307451300  2.9777424600  9.9676940100
5
scale = 1.05000
Li  3.5386811775  2.3257280865  7.7851413255
Li  2.3809271430  1.5648171840  5.2380684615
Li  0.0000000000  0.0000000000  0.0000000000
Al  1.1623259235  0.7639156875  2.5571310765
Al  4.7572823865  3.1266295830  10.4660787105
5
scale = 1.10000
Li  3.7071898050  2.4364770430  8.1558623410
Li  2.4943046260  1.6393322880  5.4875002930
Li  0.0000000000  0.0000000000  0.0000000000
Al  1.2176747770  0.8002926250  2.6788992230
Al  4.9838196430  3.2755167060  10.9644634110
5
scale = 1.15000
Li  3.8756984325  2.5472259995  8.5265833565
Li  2.6076821090  1.7138473920  5.7369321245
Li  0.0000000000  0.0000000000  0.0000000000
Al  1.2730236305  0.8366695625  2.8006673695
Al  5.2103568995  3.4244038290  11.4628481115
5
scale = 1.20000
Li  4.0442070600  2.6579749560  8.8973043720
Li  2.7210595920  1.7883624960  5.9863639560
Li  0.0000000000  0.0000000000  0.0000000000
Al  1.3283724840  0.8730465000  2.9224355160
Al  5.4368941560  3.5732909520  11.9612328120
5
scale = 1.25000
Li  4.2127156875  2.7687239125  9.2680253875
Li  2.8344370750  1.8628776000  6.2357957875
Li  0.0000000000  0.0000000000  0.0000000000
Al  1.3837213375  0.9094234375  3.0442036625
Al  5.6634314125  3.7221780750  12.4596175125
5
scale = 1.30000
Li  4.3812243150  2.8794728690  9.6387464030
Li  2.9478145580  1.9373927040  6.4852276190
Li  0.0000000000  0.0000000000  0.0000000000
Al  1.4390701910  0.9458003750  3.1659718090
Al  5.8899686690  3.8710651980  12.9580022130
5
scale = 1.35000
Li  4.5497329425  2.9902218255  10.0094674185
Li  3.0611920410  2.0119078080  6.7346594505
Li  0.0000000000  0.0000000000  0.0000000000
Al  1.4944190445  0.9821773125  3.2877399555
Al  6.1165059255  4.0199523210  13.4563869135
5
scale = 1.40000
Li  4.7182415700  3.1009707820  10.3801884340
Li  3.1745695240  2.0864229120  6.9840912820
Li  0.0000000000  0.0000000000  0.0000000000
Al  1.5497678980  1.0185542500  3.4095081020
Al  6.3430431820  4.1688394440  13.9547716140
5
scale = 1.45000
Li  4.8867501975  3.2117197385  10.7509094495
Li  3.2879470070  2.1609380160  7.2335231135
Li  0.0000000000  0.0000000000  0.0000000000
Al  1.6051167515  1.0549311875  3.5312762485
Al  6.5695804385  4.3177265670  14.4531563145
5
scale = 1.50000
Li  5.0552588250  3.3224686950  11.1216304650
Li  3.4013244900  2.2354531200  7.4829549450
Li  0.0000000000  0.0000000000  0.0000000000
Al  1.6604656050  1.0913081250  3.6530443950
Al  6.7961176950  4.4666136900  14.9515410150
5
scale = 1.55000
Li  5.2237674525  3.4332176515  11.4923514805
Li  3.5147019730  2.3099682240  7.7323867765
Li  0.0000000000  0.0000000000  0.0000000000
Al  1.7158144585  1.1276850625  3.7748125415
Al  7.0226549515  4.6155008130  15.4499257155
5
scale = 1.60000
Li  5.3922760800  3.5439666080  11.8630724960
Li  3.6280794560  2.3844833280  7.9818186080
Li  0.0000000000  0.0000000000  0.0000000000
Al  1.7711633120  1.1640620000  3.8965806880
Al  7.2491922080  4.7643879360  15.9483104160
5
scale = 1.65000
Li  5.5607847075  3.6547155645  12.2337935115
Li  3.7414569390  2.4589984320  8.2312504395
Li  0.0000000000  0.0000000000  0.0000000000
Al  1.8265121655  1.2004389375  4.0183488345
Al  7.4757294645  4.9132750590  16.4466951165
5
scale = 1.70000
Li  5.7292933350  3.7654645210  12.6045145270
Li  3.8548344220  2.5335135360  8.4806822710
Li  0.0000000000  0.0000000000  0.0000000000
Al  1.8818610190  1.2368158750  4.1401169810
Al  7.7022667210  5.0621621820  16.9450798170
5
scale = 1.75000
Li  5.8978019625  3.8762134775  12.9752355425
Li  3.9682119050  2.6080286400  8.7301141025
Li  0.0000000000  0.0000000000  0.0000000000
Al  1.9372098725  1.2731928125  4.2618851275
Al  7.9288039775  5.2110493050  17.4434645175
5
scale = 1.80000
Li  6.0663105900  3.9869624340  13.3459565580
Li  4.0815893880  2.6825437440  8.9795459340
Li  0.0000000000  0.0000000000  0.0000000000
Al  1.9925587260  1.3095697500  4.3836532740
Al  8.1553412340  5.3599364280  17.9418492180
5
scale = 1.85000
Li  6.2348192175  4.0977113905  13.7166775735
Li  4.1949668710  2.7570588480  9.2289777655
Li  0.0000000000  0.0000000000  0.0000000000
Al  2.0479075795  1.3459466875  4.5054214205
Al  8.3818784905  5.5088235510  18.4402339185
5
scale = 1.90000
Li  6.4033278450  4.2084603470  14.0873985890
Li  4.3083443540  2.8315739520  9.4784095970
Li  0.0000000000  0.0000000000  0.0000000000
Al  2.1032564330  1.3823236250  4.6271895670
Al  8.6084157470  5.6577106740  18.9386186190
5
scale = 1.95000
Li  6.5718364725  4.3192093035  14.4581196045
Li  4.4217218370  2.9060890560  9.7278414285
Li  0.0000000000  0.0000000000  0.0000000000
Al  2.1586052865  1.4187005625  4.7489577135
Al  8.8349530035  5.8065977970  19.4370033195
5
scale = 2.00000
Li  6.7403451000  4.4299582600  14.8288406200
Li  4.5350993200  2.9806041600  9.9772732600
Li  0.0000000000  0.0000000000  0.0000000000
Al  2.2139541400  1.4550775000  4.8707258600
Al  9.0614902600  5.9554849200  19.9353880200
5
scale = 2.05000
Li  6.9088537275  4.5407072165  15.1995616355
Li  4.6484768030  3.0551192640  10.2267050915
Li  0.0000000000  0.0000000000  0.0000000000
Al  2.2693029935  1.4914544375  4.9924940065
Al  9.2880275165  6.1043720430  20.4337727205
5
scale = 2.10000
Li  7.0773623550  4.6514561730  15.5702826510
Li  4.7618542860  3.1296343680  10.4761369230
Li  0.0000000000  0.0000000000  0.0000000000
Al  2.3246518470  1.5278313750  5.1142621530
Al  9.5145647730  6.2532591660  20.9321574210
5
scale = 2.15000
Li  7.2458709825  4.7622051295  15.9410036665
Li  4.8752317690  3.2041494720  10.7255687545
Li  0.0000000000  0.0000000000  0.0000000000
Al  2.3800007005  1.5642083125  5.2360302995
Al  9.7411020295  6.4021462890  21.4305421215
5
scale = 2.20000
Li  7.4143796100  4.8729540860  16.3117246820
Li  4.9886092520  3.2786645760  10.9750005860
Li  0.0000000000  0.0000000000  0.0000000000
Al  2.4353495540  1.6005852500  5.3577984460
Al  9.9676392860  6.5510334120  21.9289268220
5
scale = 2.25000
Li  7.5828882375  4.9837030425  16.6824456975
Li  5.1019867350  3.3531796800  11.2244324175
Li  0.0000000000  0.0000000000  0.0000000000
Al  2.4906984075  1.6369621875  5.4795665925
Al  10.1941765425  6.6999205350  22.4273115225
5
scale = 2.30000
Li  7.7513968650  5.0944519990  17.0531667130
Li  5.2153642180  3.4276947840  11.4738642490
Li  0.0000000000  0.0000000000  0.0000000000
Al  2.5460472610  1.6733391250  5.6013347390
Al  10.4207137990  6.8488076580  22.9256962230
5
scale = 2.35000
Li  7.9199054925  5.2052009555  17.4238877285
Li  5.3287417010  3.5022098880  11.7232960805
Li  0.0000000000  0.0000000000  0.0000000000
Al  2.6013961145  1.7097160625  5.7231028855
Al  10.6472510555  6.9976947810  23.4240809235
5
scale = 2.40000
Li  8.0884141200  5.3159499120  17.7946087440
Li  5.4421191840  3.5767249920  11.9727279120
Li  0.0000000000  0.0000000000  0.0000000000
Al  2.6567449680  1.7460930000  5.8448710320
Al  10.8737883120  7.1465819040  23.9224656240
5
scale = 2.45000
Li  8.2569227475  5.4266988685  18.1653297595
Li  5.5554966670  3.6512400960  12.2221597435
Li  0.0000000000  0.0000000000  0.0000000000
Al  2.7120938215  1.7824699375  5.9666391785
Al  11.1003255685  7.2954690270  24.4208503245
