4
scale = 0.75000
Li  2.3077296975  0.8063868600  -0.8048484975
Li  0.3514800525  2.4191605725  -0.8048484975
Li  1.3296048750  1.6127737200  -3.0446407350
Ac  0.0000000000  0.0000000000  0.0000000000
4
scale = 0.80000
Li  2.4615783440  0.8601459840  -0.8585050640
Li  0.3749120560  2.5804379440  -0.8585050640
Li  1.4182452000  1.7202919680  -3.2476167840
Ac  0.0000000000  0.0000000000  0.0000000000
4
scale = 0.85000
Li  2.6154269905  0.9139051080  -0.9121616305
Li  0.3983440595  2.7417153155  -0.9121616305
Li  1.5068855250  1.8278102160  -3.4505928330
Ac  0.0000000000  0.0000000000  0.0000000000
4
scale = 0.90000
Li  2.7692756370  0.9676642320  -0.9658181970
Li  0.4217760630  2.9029926870  -0.9658181970
Li  1.5955258500  1.9353284640  -3.6535688820
Ac  0.0000000000  0.0000000000  0.0000000000
4
scale = 0.95000
Li  2.9231242835  1.0214233560  -1.0194747635
Li  0.4452080665  3.0642700585  -1.0194747635
Li  1.6841661750  2.0428467120  -3.8565449310
Ac  0.0000000000  0.0000000000  0.0000000000
4
scale = 1.00000
Li  3.0769729300  1.0751824800  -1.0731313300
Li  0.4686400700  3.2255474300  -1.0731313300
Li  1.7728065000  2.1503649600  -4.0595209800
Ac  0.0000000000  0.0000000000  0.0000000000
4
scale = 1.05000
Li  3.2308215765  1.1289416040  -1.1267878965
Li  0.4920720735  3.3868248015  -1.1267878965
Li  1.8614468250  2.2578832080  -4.2624970290
Ac  0.0000000000  0.0000000000  0.0000000000
4
scale = 1.10000
Li  3.3846702230  1.1827007280  -1.1804444630
Li  0.5155040770  3.5481021730  -1.1804444630
Li  1.9500871500  2.3654014560  -4.4654730780
Ac  0.0000000000  0.0000000000  0.0000000000
4
scale = 1.15000
Li  3.5385188695  1.2364598520  -1.2341010295
Li  0.5389360805  3.7093795445  -1.2341010295
Li  2.0387274750  2.4729197040  -4.6684491270
Ac  0.0000000000  0.0000000000  0.0000000000
4
scale = 1.20000
Li  3.6923675160  1.2902189760  -1.2877575960
Li  0.5623680840  3.8706569160  -1.2877575960
Li  2.1273678000  2.5804379520  -4.8714251760
Ac  0.0000000000  0.0000000000  0.0000000000
4
scale = 1.25000
Li  3.8462161625  1.3439781000  -1.3414141625
Li  0.5858000875  4.0319342875  -1.3414141625
Li  2.2160081250  2.6879562000  -5.0744012250
Ac  0.0000000000  0.0000000000  0.0000000000
4
scale = 1.30000
Li  4.0000648090  1.3977372240  -1.3950707290
Li  0.6092320910  4.1932116590  -1.3950707290
Li  2.3046484500  2.7954744480  -5.2773772740
Ac  0.0000000000  0.0000000000  0.0000000000
4
scale = 1.35000
Li  4.1539134555  1.4514963480  -1.4487272955
Li  0.6326640945  4.3544890305  -1.4487272955
Li  2.3932887750  2.9029926960  -5.4803533230
Ac  0.0000000000  0.0000000000  0.0000000000
4
scale = 1.40000
Li  4.3077621020  1.5052554720  -1.5023838620
Li  0.6560960980  4.5157664020  -1.5023838620
Li  2.4819291000  3.0105109440  -5.6833293720
Ac  0.0000000000  0.0000000000  0.0000000000
4
scale = 1.45000
Li  4.4616107485  1.5590145960  -1.5560404285
Li  0.6795281015  4.6770437735  -1.5560404285
Li  2.5705694250  3.1180291920  -5.8863054210
Ac  0.0000000000  0.0000000000  0.0000000000
4
scale = 1.50000
Li  4.6154593950  1.6127737200  -1.6096969950
Li  0.7029601050  4.8383211450  -1.6096969950
Li  2.6592097500  3.2255474400  -6.0892814700
Ac  0.0000000000  0.0000000000  0.0000000000
4
scale = 1.55000
Li  4.7693080415  1.6665328440  -1.6633535615
Li  0.7263921085  4.9995985165  -1.6633535615
Li  2.7478500750  3.3330656880  -6.2922575190
Ac  0.0000000000  0.0000000000  0.0000000000
4
scale = 1.60000
Li  4.9231566880  1.7202919680  -1.7170101280
Li  0.7498241120  5.1608758880  -1.7170101280
Li  2.8364904000  3.4405839360  -6.4952335680
Ac  0.0000000000  0.0000000000  0.0000000000
4
scale = 1.65000
Li  5.0770053345  1.7740510920  -1.7706666945
Li  0.7732561155  5.3221532595  -1.7706666945
Li  2.9251307250  3.5481021840  -6.6982096170
Ac  0.0000000000  0.0000000000  0.0000000000
4
scale = 1.70000
Li  5.2308539810  1.8278102160  -1.8243232610
Li  0.7966881190  5.4834306310  -1.8243232610
Li  3.0137710500  3.6556204320  -6.9011856660
Ac  0.0000000000  0.0000000000  0.0000000000
4
scale = 1.75000
Li  5.3847026275  1.8815693400  -1.8779798275
Li  0.8201201225  5.6447080025  -1.8779798275
Li  3.1024113750  3.7631386800  -7.1041617150
Ac  0.0000000000  0.0000000000  0.0000000000
4
scale = 1.80000
Li  5.5385512740  1.9353284640  -1.9316363940
Li  0.8435521260  5.8059853740  -1.9316363940
Li  3.1910517000  3.8706569280  -7.3071377640
Ac  0.0000000000  0.0000000000  0.0000000000
4
scale = 1.85000
Li  5.6923999205  1.9890875880  -1.9852929605
Li  0.8669841295  5.9672627455  -1.9852929605
Li  3.2796920250  3.9781751760  -7.5101138130
Ac  0.0000000000  0.0000000000  0.0000000000
4
scale = 1.90000
Li  5.8462485670  2.0428467120  -2.0389495270
Li  0.8904161330  6.1285401170  -2.0389495270
Li  3.3683323500  4.0856934240  -7.7130898620
Ac  0.0000000000  0.0000000000  0.0000000000
4
scale = 1.95000
Li  6.0000972135  2.0966058360  -2.0926060935
Li  0.9138481365  6.2898174885  -2.0926060935
Li  3.4569726750  4.1932116720  -7.9160659110
Ac  0.0000000000  0.0000000000  0.0000000000
4
scale = 2.00000
Li  6.1539458600  2.1503649600  -2.1462626600
Li  0.9372801400  6.4510948600  -2.1462626600
Li  3.5456130000  4.3007299200  -8.1190419600
Ac  0.0000000000  0.0000000000  0.0000000000
4
scale = 2.05000
Li  6.3077945065  2.2041240840  -2.1999192265
Li  0.9607121435  6.6123722315  -2.1999192265
Li  3.6342533250  4.4082481680  -8.3220180090
Ac  0.0000000000  0.0000000000  0.0000000000
4
scale = 2.10000
Li  6.4616431530  2.2578832080  -2.2535757930
Li  0.9841441470  6.7736496030  -2.2535757930
Li  3.7228936500  4.5157664160  -8.5249940580
Ac  0.0000000000  0.0000000000  0.0000000000
4
scale = 2.15000
Li  6.6154917995  2.3116423320  -2.3072323595
Li  1.0075761505  6.9349269745  -2.3072323595
Li  3.8115339750  4.6232846640  -8.7279701070
Ac  0.0000000000  0.0000000000  0.0000000000
4
scale = 2.20000
Li  6.7693404460  2.3654014560  -2.3608889260
Li  1.0310081540  7.0962043460  -2.3608889260
Li  3.9001743000  4.7308029120  -8.9309461560
Ac  0.0000000000  0.0000000000  0.0000000000
4
scale = 2.25000
Li  6.9231890925  2.4191605800  -2.4145454925
Li  1.0544401575  7.2574817175  -2.4145454925
Li  3.9888146250  4.8383211600  -9.1339222050
Ac  0.0000000000  0.0000000000  0.0000000000
4
scale = 2.30000
Li  7.0770377390  2.4729197040  -2.4682020590
Li  1.0778721610  7.4187590890  -2.4682020590
Li  4.0774549500  4.9458394080  -9.3368982540
Ac  0.0000000000  0.0000000000  0.0000000000
4
scale = 2.35000
Li  7.2308863855  2.5266788280  -2.5218586255
Li  1.1013041645  7.5800364605  -2.5218586255
Li  4.1660952750  5.0533576560  -9.5398743030
Ac  0.0000000000  0.0000000000  0.0000000000
4
scale = 2.40000
Li  7.3847350320  2.5804379520  -2.5755151920
Li  1.1247361680  7.7413138320  -2.5755151920
Li  4.2547356000  5.1608759040  -9.7428503520
Ac  0.0000000000  0.0000000000  0.0000000000
4
scale = 2.45000
Li  7.5385836785  2.6341970760  -2.6291717585
Li  1.1481681715  7.9025912035  -2.6291717585
Li  4.3433759250  5.2683941520  -9.9458264010
Ac  0.0000000000  0.0000000000  0.0000000000
