4
scale = 0.75000
Li  1.9104186300  0.6704717250  -0.4914651225
Li  0.2311723050  2.0114151825  -0.4914651225
Li  1.0707954675  1.3409434575  -2.2764777975
Au  0.0000000000  0.0000000000  0.0000000000
4
scale = 0.80000
Li  2.0377798720  0.7151698400  -0.5242294640
Li  0.2465837920  2.1455095280  -0.5242294640
Li  1.1421818320  1.4303396880  -2.4282429840
Au  0.0000000000  0.0000000000  0.0000000000
4
scale = 0.85000
Li  2.1651411140  0.7598679550  -0.5569938055
Li  0.2619952790  2.2796038735  -0.5569938055
Li  1.2135681965  1.5197359185  -2.5800081705
Au  0.0000000000  0.0000000000  0.0000000000
4
scale = 0.90000
Li  2.2925023560  0.8045660700  -0.5897581470
Li  0.2774067660  2.4136982190  -0.5897581470
Li  1.2849545610  1.6091321490  -2.7317733570
Au  0.0000000000  0.0000000000  0.0000000000
4
scale = 0.95000
Li  2.4198635980  0.8492641850  -0.6225224885
Li  0.2928182530  2.5477925645  -0.6225224885
Li  1.3563409255  1.6985283795  -2.8835385435
Au  0.0000000000  0.0000000000  0.0000000000
4
scale = 1.00000
Li  2.5472248400  0.8939623000  -0.6552868300
Li  0.3082297400  2.6818869100  -0.6552868300
Li  1.4277272900  1.7879246100  -3.0353037300
Au  0.0000000000  0.0000000000  0.0000000000
4
scale = 1.05000
Li  2.6745860820  0.9386604150  -0.6880511715
Li  0.3236412270  2.8159812555  -0.6880511715
Li  1.4991136545  1.8773208405  -3.1870689165
Au  0.0000000000  0.0000000000  0.0000000000
4
scale = 1.10000
Li  2.8019473240  0.9833585300  -0.7208155130
Li  0.3390527140  2.9500756010  -0.7208155130
Li  1.5705000190  1.9667170710  -3.3388341030
Au  0.0000000000  0.0000000000  0.0000000000
4
scale = 1.15000
Li  2.9293085660  1.0280566450  -0.7535798545
Li  0.3544642010  3.0841699465  -0.7535798545
Li  1.6418863835  2.0561133015  -3.4905992895
Au  0.0000000000  0.0000000000  0.0000000000
4
scale = 1.20000
Li  3.0566698080  1.0727547600  -0.7863441960
Li  0.3698756880  3.2182642920  -0.7863441960
Li  1.7132727480  2.1455095320  -3.6423644760
Au  0.0000000000  0.0000000000  0.0000000000
4
scale = 1.25000
Li  3.1840310500  1.1174528750  -0.8191085375
Li  0.3852871750  3.3523586375  -0.8191085375
Li  1.7846591125  2.2349057625  -3.7941296625
Au  0.0000000000  0.0000000000  0.0000000000
4
scale = 1.30000
Li  3.3113922920  1.1621509900  -0.8518728790
Li  0.4006986620  3.4864529830  -0.8518728790
Li  1.8560454770  2.3243019930  -3.9458948490
Au  0.0000000000  0.0000000000  0.0000000000
4
scale = 1.35000
Li  3.4387535340  1.2068491050  -0.8846372205
Li  0.4161101490  3.6205473285  -0.8846372205
Li  1.9274318415  2.4136982235  -4.0976600355
Au  0.0000000000  0.0000000000  0.0000000000
4
scale = 1.40000
Li  3.5661147760  1.2515472200  -0.9174015620
Li  0.4315216360  3.7546416740  -0.9174015620
Li  1.9988182060  2.5030944540  -4.2494252220
Au  0.0000000000  0.0000000000  0.0000000000
4
scale = 1.45000
Li  3.6934760180  1.2962453350  -0.9501659035
Li  0.4469331230  3.8887360195  -0.9501659035
Li  2.0702045705  2.5924906845  -4.4011904085
Au  0.0000000000  0.0000000000  0.0000000000
4
scale = 1.50000
Li  3.8208372600  1.3409434500  -0.9829302450
Li  0.4623446100  4.0228303650  -0.9829302450
Li  2.1415909350  2.6818869150  -4.5529555950
Au  0.0000000000  0.0000000000  0.0000000000
4
scale = 1.55000
Li  3.9481985020  1.3856415650  -1.0156945865
Li  0.4777560970  4.1569247105  -1.0156945865
Li  2.2129772995  2.7712831455  -4.7047207815
Au  0.0000000000  0.0000000000  0.0000000000
4
scale = 1.60000
Li  4.0755597440  1.4303396800  -1.0484589280
Li  0.4931675840  4.2910190560  -1.0484589280
Li  2.2843636640  2.8606793760  -4.8564859680
Au  0.0000000000  0.0000000000  0.0000000000
4
scale = 1.65000
Li  4.2029209860  1.4750377950  -1.0812232695
Li  0.5085790710  4.4251134015  -1.0812232695
Li  2.3557500285  2.9500756065  -5.0082511545
Au  0.0000000000  0.0000000000  0.0000000000
4
scale = 1.70000
Li  4.3302822280  1.5197359100  -1.1139876110
Li  0.5239905580  4.5592077470  -1.1139876110
Li  2.4271363930  3.0394718370  -5.1600163410
Au  0.0000000000  0.0000000000  0.0000000000
4
scale = 1.75000
Li  4.4576434700  1.5644340250  -1.1467519525
Li  0.5394020450  4.6933020925  -1.1467519525
Li  2.4985227575  3.1288680675  -5.3117815275
Au  0.0000000000  0.0000000000  0.0000000000
4
scale = 1.80000
Li  4.5850047120  1.6091321400  -1.1795162940
Li  0.5548135320  4.8273964380  -1.1795162940
Li  2.5699091220  3.2182642980  -5.4635467140
Au  0.0000000000  0.0000000000  0.0000000000
4
scale = 1.85000
Li  4.7123659540  1.6538302550  -1.2122806355
Li  0.5702250190  4.9614907835  -1.2122806355
Li  2.6412954865  3.3076605285  -5.6153119005
Au  0.0000000000  0.0000000000  0.0000000000
4
scale = 1.90000
Li  4.8397271960  1.6985283700  -1.2450449770
Li  0.5856365060  5.0955851290  -1.2450449770
Li  2.7126818510  3.3970567590  -5.7670770870
Au  0.0000000000  0.0000000000  0.0000000000
4
scale = 1.95000
Li  4.9670884380  1.7432264850  -1.2778093185
Li  0.6010479930  5.2296794745  -1.2778093185
Li  2.7840682155  3.4864529895  -5.9188422735
Au  0.0000000000  0.0000000000  0.0000000000
4
scale = 2.00000
Li  5.0944496800  1.7879246000  -1.3105736600
Li  0.6164594800  5.3637738200  -1.3105736600
Li  2.8554545800  3.5758492200  -6.0706074600
Au  0.0000000000  0.0000000000  0.0000000000
4
scale = 2.05000
Li  5.2218109220  1.8326227150  -1.3433380015
Li  0.6318709670  5.4978681655  -1.3433380015
Li  2.9268409445  3.6652454505  -6.2223726465
Au  0.0000000000  0.0000000000  0.0000000000
4
scale = 2.10000
Li  5.3491721640  1.8773208300  -1.3761023430
Li  0.6472824540  5.6319625110  -1.3761023430
Li  2.9982273090  3.7546416810  -6.3741378330
Au  0.0000000000  0.0000000000  0.0000000000
4
scale = 2.15000
Li  5.4765334060  1.9220189450  -1.4088666845
Li  0.6626939410  5.7660568565  -1.4088666845
Li  3.0696136735  3.8440379115  -6.5259030195
Au  0.0000000000  0.0000000000  0.0000000000
4
scale = 2.20000
Li  5.6038946480  1.9667170600  -1.4416310260
Li  0.6781054280  5.9001512020  -1.4416310260
Li  3.1410000380  3.9334341420  -6.6776682060
Au  0.0000000000  0.0000000000  0.0000000000
4
scale = 2.25000
Li  5.7312558900  2.0114151750  -1.4743953675
Li  0.6935169150  6.0342455475  -1.4743953675
Li  3.2123864025  4.0228303725  -6.8294333925
Au  0.0000000000  0.0000000000  0.0000000000
4
scale = 2.30000
Li  5.8586171320  2.0561132900  -1.5071597090
Li  0.7089284020  6.1683398930  -1.5071597090
Li  3.2837727670  4.1122266030  -6.9811985790
Au  0.0000000000  0.0000000000  0.0000000000
4
scale = 2.35000
Li  5.9859783740  2.1008114050  -1.5399240505
Li  0.7243398890  6.3024342385  -1.5399240505
Li  3.3551591315  4.2016228335  -7.1329637655
Au  0.0000000000  0.0000000000  0.0000000000
4
scale = 2.40000
Li  6.1133396160  2.1455095200  -1.5726883920
Li  0.7397513760  6.4365285840  -1.5726883920
Li  3.4265454960  4.2910190640  -7.2847289520
Au  0.0000000000  0.0000000000  0.0000000000
4
scale = 2.45000
Li  6.2407008580  2.1902076350  -1.6054527335
Li  0.7551628630  6.5706229295  -1.6054527335
Li  3.4979318605  4.3804152945  -7.4364941385
Au  0.0000000000  0.0000000000  0.0000000000
