4
scale = 0.75000
Li  2.8537063500  2.0178760050  4.9427645700
Li  1.9024708950  1.3452506700  3.2951763750
Li  0.9512354475  0.6726253350  1.6475881875
Au  0.0000000000  0.0000000000  0.0000000000
4
scale = 0.80000
Li  3.0439534400  2.1524010720  5.2722822080
Li  2.0293022880  1.4349340480  3.5148548000
Li  1.0146511440  0.7174670240  1.7574274000
Au  0.0000000000  0.0000000000  0.0000000000
4
scale = 0.85000
Li  3.2342005300  2.2869261390  5.6017998460
Li  2.1561336810  1.5246174260  3.7345332250
Li  1.0780668405  0.7623087130  1.8672666125
Au  0.0000000000  0.0000000000  0.0000000000
4
scale = 0.90000
Li  3.4244476200  2.4214512060  5.9313174840
Li  2.2829650740  1.6143008040  3.9542116500
Li  1.1414825370  0.8071504020  1.9771058250
Au  0.0000000000  0.0000000000  0.0000000000
4
scale = 0.95000
Li  3.6146947100  2.5559762730  6.2608351220
Li  2.4097964670  1.7039841820  4.1738900750
Li  1.2048982335  0.8519920910  2.0869450375
Au  0.0000000000  0.0000000000  0.0000000000
4
scale = 1.00000
Li  3.8049418000  2.6905013400  6.5903527600
Li  2.5366278600  1.7936675600  4.3935685000
Li  1.2683139300  0.8968337800  2.1967842500
Au  0.0000000000  0.0000000000  0.0000000000
4
scale = 1.05000
Li  3.9951888900  2.8250264070  6.9198703980
Li  2.6634592530  1.8833509380  4.6132469250
Li  1.3317296265  0.9416754690  2.3066234625
Au  0.0000000000  0.0000000000  0.0000000000
4
scale = 1.10000
Li  4.1854359800  2.9595514740  7.2493880360
Li  2.7902906460  1.9730343160  4.8329253500
Li  1.3951453230  0.9865171580  2.4164626750
Au  0.0000000000  0.0000000000  0.0000000000
4
scale = 1.15000
Li  4.3756830700  3.0940765410  7.5789056740
Li  2.9171220390  2.0627176940  5.0526037750
Li  1.4585610195  1.0313588470  2.5263018875
Au  0.0000000000  0.0000000000  0.0000000000
4
scale = 1.20000
Li  4.5659301600  3.2286016080  7.9084233120
Li  3.0439534320  2.1524010720  5.2722822000
Li  1.5219767160  1.0762005360  2.6361411000
Au  0.0000000000  0.0000000000  0.0000000000
4
scale = 1.25000
Li  4.7561772500  3.3631266750  8.2379409500
Li  3.1707848250  2.2420844500  5.4919606250
Li  1.5853924125  1.1210422250  2.7459803125
Au  0.0000000000  0.0000000000  0.0000000000
4
scale = 1.30000
Li  4.9464243400  3.4976517420  8.5674585880
Li  3.2976162180  2.3317678280  5.7116390500
Li  1.6488081090  1.1658839140  2.8558195250
Au  0.0000000000  0.0000000000  0.0000000000
4
scale = 1.35000
Li  5.1366714300  3.6321768090  8.8969762260
Li  3.4244476110  2.4214512060  5.9313174750
Li  1.7122238055  1.2107256030  2.9656587375
Au  0.0000000000  0.0000000000  0.0000000000
4
scale = 1.40000
Li  5.3269185200  3.7667018760  9.2264938640
Li  3.5512790040  2.5111345840  6.1509959000
Li  1.7756395020  1.2555672920  3.0754979500
Au  0.0000000000  0.0000000000  0.0000000000
4
scale = 1.45000
Li  5.5171656100  3.9012269430  9.5560115020
Li  3.6781103970  2.6008179620  6.3706743250
Li  1.8390551985  1.3004089810  3.1853371625
Au  0.0000000000  0.0000000000  0.0000000000
4
scale = 1.50000
Li  5.7074127000  4.0357520100  9.8855291400
Li  3.8049417900  2.6905013400  6.5903527500
Li  1.9024708950  1.3452506700  3.2951763750
Au  0.0000000000  0.0000000000  0.0000000000
4
scale = 1.55000
Li  5.8976597900  4.1702770770  10.2150467780
Li  3.9317731830  2.7801847180  6.8100311750
Li  1.9658865915  1.3900923590  3.4050155875
Au  0.0000000000  0.0000000000  0.0000000000
4
scale = 1.60000
Li  6.0879068800  4.3048021440  10.5445644160
Li  4.0586045760  2.8698680960  7.0297096000
Li  2.0293022880  1.4349340480  3.5148548000
Au  0.0000000000  0.0000000000  0.0000000000
4
scale = 1.65000
Li  6.2781539700  4.4393272110  10.8740820540
Li  4.1854359690  2.9595514740  7.2493880250
Li  2.0927179845  1.4797757370  3.6246940125
Au  0.0000000000  0.0000000000  0.0000000000
4
scale = 1.70000
Li  6.4684010600  4.5738522780  11.2035996920
Li  4.3122673620  3.0492348520  7.4690664500
Li  2.1561336810  1.5246174260  3.7345332250
Au  0.0000000000  0.0000000000  0.0000000000
4
scale = 1.75000
Li  6.6586481500  4.7083773450  11.5331173300
Li  4.4390987550  3.1389182300  7.6887448750
Li  2.2195493775  1.5694591150  3.8443724375
Au  0.0000000000  0.0000000000  0.0000000000
4
scale = 1.80000
Li  6.8488952400  4.8429024120  11.8626349680
Li  4.5659301480  3.2286016080  7.9084233000
Li  2.2829650740  1.6143008040  3.9542116500
Au  0.0000000000  0.0000000000  0.0000000000
4
scale = 1.85000
Li  7.0391423300  4.9774274790  12.1921526060
Li  4.6927615410  3.3182849860  8.1281017250
Li  2.3463807705  1.6591424930  4.0640508625
Au  0.0000000000  0.0000000000  0.0000000000
4
scale = 1.90000
Li  7.2293894200  5.1119525460  12.5216702440
Li  4.8195929340  3.4079683640  8.3477801500
Li  2.4097964670  1.7039841820  4.1738900750
Au  0.0000000000  0.0000000000  0.0000000000
4
scale = 1.95000
Li  7.4196365100  5.2464776130  12.8511878820
Li  4.9464243270  3.4976517420  8.5674585750
Li  2.4732121635  1.7488258710  4.2837292875
Au  0.0000000000  0.0000000000  0.0000000000
4
scale = 2.00000
Li  7.6098836000  5.3810026800  13.1807055200
Li  5.0732557200  3.5873351200  8.7871370000
Li  2.5366278600  1.7936675600  4.3935685000
Au  0.0000000000  0.0000000000  0.0000000000
4
scale = 2.05000
Li  7.8001306900  5.5155277470  13.5102231580
Li  5.2000871130  3.6770184980  9.0068154250
Li  2.6000435565  1.8385092490  4.5034077125
Au  0.0000000000  0.0000000000  0.0000000000
4
scale = 2.10000
Li  7.9903777800  5.6500528140  13.8397407960
Li  5.3269185060  3.7667018760  9.2264938500
Li  2.6634592530  1.8833509380  4.6132469250
Au  0.0000000000  0.0000000000  0.0000000000
4
scale = 2.15000
Li  8.1806248700  5.7845778810  14.1692584340
Li  5.4537498990  3.8563852540  9.4461722750
Li  2.7268749495  1.9281926270  4.7230861375
Au  0.0000000000  0.0000000000  0.0000000000
4
scale = 2.20000
Li  8.3708719600  5.9191029480  14.4987760720
Li  5.5805812920  3.9460686320  9.6658507000
Li  2.7902906460  1.9730343160  4.8329253500
Au  0.0000000000  0.0000000000  0.0000000000
4
scale = 2.25000
Li  8.5611190500  6.0536280150  14.8282937100
Li  5.7074126850  4.0357520100  9.8855291250
Li  2.8537063425  2.0178760050  4.9427645625
Au  0.0000000000  0.0000000000  0.0000000000
4
scale = 2.30000
Li  8.7513661400  6.1881530820  15.1578113480
Li  5.8342440780  4.1254353880  10.1052075500
Li  2.9171220390  2.0627176940  5.0526037750
Au  0.0000000000  0.0000000000  0.0000000000
4
scale = 2.35000
Li  8.9416132300  6.3226781490  15.4873289860
Li  5.9610754710  4.2151187660  10.3248859750
Li  2.9805377355  2.1075593830  5.1624429875
Au  0.0000000000  0.0000000000  0.0000000000
4
scale = 2.40000
Li  9.1318603200  6.4572032160  15.8168466240
Li  6.0879068640  4.3048021440  10.5445644000
Li  3.0439534320  2.1524010720  5.2722822000
Au  0.0000000000  0.0000000000  0.0000000000
4
scale = 2.45000
Li  9.3221074100  6.5917282830  16.1463642620
Li  6.2147382570  4.3944855220  10.7642428250
Li  3.1073691285  2.1972427610  5.3821214125
Au  0.0000000000  0.0000000000  0.0000000000
