4
scale = 0.75000
Li  1.7318597475  0.6120662775  -0.0870690825
Li  0.0483439200  1.8361988400  -0.0870690825
Li  0.8901018375  1.2241325625  -1.6031043150
B   0.0000000000  0.0000000000  0.0000000000
4
scale = 0.80000
Li  1.8473170640  0.6528706960  -0.0928736880
Li  0.0515668480  1.9586120960  -0.0928736880
Li  0.9494419600  1.3057414000  -1.7099779360
B   0.0000000000  0.0000000000  0.0000000000
4
scale = 0.85000
Li  1.9627743805  0.6936751145  -0.0986782935
Li  0.0547897760  2.0810253520  -0.0986782935
Li  1.0087820825  1.3873502375  -1.8168515570
B   0.0000000000  0.0000000000  0.0000000000
4
scale = 0.90000
Li  2.0782316970  0.7344795330  -0.1044828990
Li  0.0580127040  2.2034386080  -0.1044828990
Li  1.0681222050  1.4689590750  -1.9237251780
B   0.0000000000  0.0000000000  0.0000000000
4
scale = 0.95000
Li  2.1936890135  0.7752839515  -0.1102875045
Li  0.0612356320  2.3258518640  -0.1102875045
Li  1.1274623275  1.5505679125  -2.0305987990
B   0.0000000000  0.0000000000  0.0000000000
4
scale = 1.00000
Li  2.3091463300  0.8160883700  -0.1160921100
Li  0.0644585600  2.4482651200  -0.1160921100
Li  1.1868024500  1.6321767500  -2.1374724200
B   0.0000000000  0.0000000000  0.0000000000
4
scale = 1.05000
Li  2.4246036465  0.8568927885  -0.1218967155
Li  0.0676814880  2.5706783760  -0.1218967155
Li  1.2461425725  1.7137855875  -2.2443460410
B   0.0000000000  0.0000000000  0.0000000000
4
scale = 1.10000
Li  2.5400609630  0.8976972070  -0.1277013210
Li  0.0709044160  2.6930916320  -0.1277013210
Li  1.3054826950  1.7953944250  -2.3512196620
B   0.0000000000  0.0000000000  0.0000000000
4
scale = 1.15000
Li  2.6555182795  0.9385016255  -0.1335059265
Li  0.0741273440  2.8155048880  -0.1335059265
Li  1.3648228175  1.8770032625  -2.4580932830
B   0.0000000000  0.0000000000  0.0000000000
4
scale = 1.20000
Li  2.7709755960  0.9793060440  -0.1393105320
Li  0.0773502720  2.9379181440  -0.1393105320
Li  1.4241629400  1.9586121000  -2.5649669040
B   0.0000000000  0.0000000000  0.0000000000
4
scale = 1.25000
Li  2.8864329125  1.0201104625  -0.1451151375
Li  0.0805732000  3.0603314000  -0.1451151375
Li  1.4835030625  2.0402209375  -2.6718405250
B   0.0000000000  0.0000000000  0.0000000000
4
scale = 1.30000
Li  3.0018902290  1.0609148810  -0.1509197430
Li  0.0837961280  3.1827446560  -0.1509197430
Li  1.5428431850  2.1218297750  -2.7787141460
B   0.0000000000  0.0000000000  0.0000000000
4
scale = 1.35000
Li  3.1173475455  1.1017192995  -0.1567243485
Li  0.0870190560  3.3051579120  -0.1567243485
Li  1.6021833075  2.2034386125  -2.8855877670
B   0.0000000000  0.0000000000  0.0000000000
4
scale = 1.40000
Li  3.2328048620  1.1425237180  -0.1625289540
Li  0.0902419840  3.4275711680  -0.1625289540
Li  1.6615234300  2.2850474500  -2.9924613880
B   0.0000000000  0.0000000000  0.0000000000
4
scale = 1.45000
Li  3.3482621785  1.1833281365  -0.1683335595
Li  0.0934649120  3.5499844240  -0.1683335595
Li  1.7208635525  2.3666562875  -3.0993350090
B   0.0000000000  0.0000000000  0.0000000000
4
scale = 1.50000
Li  3.4637194950  1.2241325550  -0.1741381650
Li  0.0966878400  3.6723976800  -0.1741381650
Li  1.7802036750  2.4482651250  -3.2062086300
B   0.0000000000  0.0000000000  0.0000000000
4
scale = 1.55000
Li  3.5791768115  1.2649369735  -0.1799427705
Li  0.0999107680  3.7948109360  -0.1799427705
Li  1.8395437975  2.5298739625  -3.3130822510
B   0.0000000000  0.0000000000  0.0000000000
4
scale = 1.60000
Li  3.6946341280  1.3057413920  -0.1857473760
Li  0.1031336960  3.9172241920  -0.1857473760
Li  1.8988839200  2.6114828000  -3.4199558720
B   0.0000000000  0.0000000000  0.0000000000
4
scale = 1.65000
Li  3.8100914445  1.3465458105  -0.1915519815
Li  0.1063566240  4.0396374480  -0.1915519815
Li  1.9582240425  2.6930916375  -3.5268294930
B   0.0000000000  0.0000000000  0.0000000000
4
scale = 1.70000
Li  3.9255487610  1.3873502290  -0.1973565870
Li  0.1095795520  4.1620507040  -0.1973565870
Li  2.0175641650  2.7747004750  -3.6337031140
B   0.0000000000  0.0000000000  0.0000000000
4
scale = 1.75000
Li  4.0410060775  1.4281546475  -0.2031611925
Li  0.1128024800  4.2844639600  -0.2031611925
Li  2.0769042875  2.8563093125  -3.7405767350
B   0.0000000000  0.0000000000  0.0000000000
4
scale = 1.80000
Li  4.1564633940  1.4689590660  -0.2089657980
Li  0.1160254080  4.4068772160  -0.2089657980
Li  2.1362444100  2.9379181500  -3.8474503560
B   0.0000000000  0.0000000000  0.0000000000
4
scale = 1.85000
Li  4.2719207105  1.5097634845  -0.2147704035
Li  0.1192483360  4.5292904720  -0.2147704035
Li  2.1955845325  3.0195269875  -3.9543239770
B   0.0000000000  0.0000000000  0.0000000000
4
scale = 1.90000
Li  4.3873780270  1.5505679030  -0.2205750090
Li  0.1224712640  4.6517037280  -0.2205750090
Li  2.2549246550  3.1011358250  -4.0611975980
B   0.0000000000  0.0000000000  0.0000000000
4
scale = 1.95000
Li  4.5028353435  1.5913723215  -0.2263796145
Li  0.1256941920  4.7741169840  -0.2263796145
Li  2.3142647775  3.1827446625  -4.1680712190
B   0.0000000000  0.0000000000  0.0000000000
4
scale = 2.00000
Li  4.6182926600  1.6321767400  -0.2321842200
Li  0.1289171200  4.8965302400  -0.2321842200
Li  2.3736049000  3.2643535000  -4.2749448400
B   0.0000000000  0.0000000000  0.0000000000
4
scale = 2.05000
Li  4.7337499765  1.6729811585  -0.2379888255
Li  0.1321400480  5.0189434960  -0.2379888255
Li  2.4329450225  3.3459623375  -4.3818184610
B   0.0000000000  0.0000000000  0.0000000000
4
scale = 2.10000
Li  4.8492072930  1.7137855770  -0.2437934310
Li  0.1353629760  5.1413567520  -0.2437934310
Li  2.4922851450  3.4275711750  -4.4886920820
B   0.0000000000  0.0000000000  0.0000000000
4
scale = 2.15000
Li  4.9646646095  1.7545899955  -0.2495980365
Li  0.1385859040  5.2637700080  -0.2495980365
Li  2.5516252675  3.5091800125  -4.5955657030
B   0.0000000000  0.0000000000  0.0000000000
4
scale = 2.20000
Li  5.0801219260  1.7953944140  -0.2554026420
Li  0.1418088320  5.3861832640  -0.2554026420
Li  2.6109653900  3.5907888500  -4.7024393240
B   0.0000000000  0.0000000000  0.0000000000
4
scale = 2.25000
Li  5.1955792425  1.8361988325  -0.2612072475
Li  0.1450317600  5.5085965200  -0.2612072475
Li  2.6703055125  3.6723976875  -4.8093129450
B   0.0000000000  0.0000000000  0.0000000000
4
scale = 2.30000
Li  5.3110365590  1.8770032510  -0.2670118530
Li  0.1482546880  5.6310097760  -0.2670118530
Li  2.7296456350  3.7540065250  -4.9161865660
B   0.0000000000  0.0000000000  0.0000000000
4
scale = 2.35000
Li  5.4264938755  1.9178076695  -0.2728164585
Li  0.1514776160  5.7534230320  -0.2728164585
Li  2.7889857575  3.8356153625  -5.0230601870
B   0.0000000000  0.0000000000  0.0000000000
4
scale = 2.40000
Li  5.5419511920  1.9586120880  -0.2786210640
Li  0.1547005440  5.8758362880  -0.2786210640
Li  2.8483258800  3.9172242000  -5.1299338080
B   0.0000000000  0.0000000000  0.0000000000
4
scale = 2.45000
Li  5.6574085085  1.9994165065  -0.2844256695
Li  0.1579234720  5.9982495440  -0.2844256695
Li  2.9076660025  3.9988330375  -5.2368074290
B   0.0000000000  0.0000000000  0.0000000000
