4
scale = 0.75000
Li  3.4600905750  2.4466535100  5.9930526750
Li  1.1533635225  0.8155511700  1.9976842275
Li  0.0000000000  0.0000000000  0.0000000000
Ca  2.3067270450  1.6311023400  3.9953684475
4
scale = 0.80000
Li  3.6907632800  2.6097637440  6.3925895200
Li  1.2302544240  0.8699212480  2.1308631760
Li  0.0000000000  0.0000000000  0.0000000000
Ca  2.4605088480  1.7398424960  4.2617263440
4
scale = 0.85000
Li  3.9214359850  2.7728739780  6.7921263650
Li  1.3071453255  0.9242913260  2.2640421245
Li  0.0000000000  0.0000000000  0.0000000000
Ca  2.6142906510  1.8485826520  4.5280842405
4
scale = 0.90000
Li  4.1521086900  2.9359842120  7.1916632100
Li  1.3840362270  0.9786614040  2.3972210730
Li  0.0000000000  0.0000000000  0.0000000000
Ca  2.7680724540  1.9573228080  4.7944421370
4
scale = 0.95000
Li  4.3827813950  3.0990944460  7.5912000550
Li  1.4609271285  1.0330314820  2.5304000215
Li  0.0000000000  0.0000000000  0.0000000000
Ca  2.9218542570  2.0660629640  5.0608000335
4
scale = 1.00000
Li  4.6134541000  3.2622046800  7.9907369000
Li  1.5378180300  1.0874015600  2.6635789700
Li  0.0000000000  0.0000000000  0.0000000000
Ca  3.0756360600  2.1748031200  5.3271579300
4
scale = 1.05000
Li  4.8441268050  3.4253149140  8.3902737450
Li  1.6147089315  1.1417716380  2.7967579185
Li  0.0000000000  0.0000000000  0.0000000000
Ca  3.2294178630  2.2835432760  5.5935158265
4
scale = 1.10000
Li  5.0747995100  3.5884251480  8.7898105900
Li  1.6915998330  1.1961417160  2.9299368670
Li  0.0000000000  0.0000000000  0.0000000000
Ca  3.3831996660  2.3922834320  5.8598737230
4
scale = 1.15000
Li  5.3054722150  3.7515353820  9.1893474350
Li  1.7684907345  1.2505117940  3.0631158155
Li  0.0000000000  0.0000000000  0.0000000000
Ca  3.5369814690  2.5010235880  6.1262316195
4
scale = 1.20000
Li  5.5361449200  3.9146456160  9.5888842800
Li  1.8453816360  1.3048818720  3.1962947640
Li  0.0000000000  0.0000000000  0.0000000000
Ca  3.6907632720  2.6097637440  6.3925895160
4
scale = 1.25000
Li  5.7668176250  4.0777558500  9.9884211250
Li  1.9222725375  1.3592519500  3.3294737125
Li  0.0000000000  0.0000000000  0.0000000000
Ca  3.8445450750  2.7185039000  6.6589474125
4
scale = 1.30000
Li  5.9974903300  4.2408660840  10.3879579700
Li  1.9991634390  1.4136220280  3.4626526610
Li  0.0000000000  0.0000000000  0.0000000000
Ca  3.9983268780  2.8272440560  6.9253053090
4
scale = 1.35000
Li  6.2281630350  4.4039763180  10.7874948150
Li  2.0760543405  1.4679921060  3.5958316095
Li  0.0000000000  0.0000000000  0.0000000000
Ca  4.1521086810  2.9359842120  7.1916632055
4
scale = 1.40000
Li  6.4588357400  4.5670865520  11.1870316600
Li  2.1529452420  1.5223621840  3.7290105580
Li  0.0000000000  0.0000000000  0.0000000000
Ca  4.3058904840  3.0447243680  7.4580211020
4
scale = 1.45000
Li  6.6895084450  4.7301967860  11.5865685050
Li  2.2298361435  1.5767322620  3.8621895065
Li  0.0000000000  0.0000000000  0.0000000000
Ca  4.4596722870  3.1534645240  7.7243789985
4
scale = 1.50000
Li  6.9201811500  4.8933070200  11.9861053500
Li  2.3067270450  1.6311023400  3.9953684550
Li  0.0000000000  0.0000000000  0.0000000000
Ca  4.6134540900  3.2622046800  7.9907368950
4
scale = 1.55000
Li  7.1508538550  5.0564172540  12.3856421950
Li  2.3836179465  1.6854724180  4.1285474035
Li  0.0000000000  0.0000000000  0.0000000000
Ca  4.7672358930  3.3709448360  8.2570947915
4
scale = 1.60000
Li  7.3815265600  5.2195274880  12.7851790400
Li  2.4605088480  1.7398424960  4.2617263520
Li  0.0000000000  0.0000000000  0.0000000000
Ca  4.9210176960  3.4796849920  8.5234526880
4
scale = 1.65000
Li  7.6121992650  5.3826377220  13.1847158850
Li  2.5373997495  1.7942125740  4.3949053005
Li  0.0000000000  0.0000000000  0.0000000000
Ca  5.0747994990  3.5884251480  8.7898105845
4
scale = 1.70000
Li  7.8428719700  5.5457479560  13.5842527300
Li  2.6142906510  1.8485826520  4.5280842490
Li  0.0000000000  0.0000000000  0.0000000000
Ca  5.2285813020  3.6971653040  9.0561684810
4
scale = 1.75000
Li  8.0735446750  5.7088581900  13.9837895750
Li  2.6911815525  1.9029527300  4.6612631975
Li  0.0000000000  0.0000000000  0.0000000000
Ca  5.3823631050  3.8059054600  9.3225263775
4
scale = 1.80000
Li  8.3042173800  5.8719684240  14.3833264200
Li  2.7680724540  1.9573228080  4.7944421460
Li  0.0000000000  0.0000000000  0.0000000000
Ca  5.5361449080  3.9146456160  9.5888842740
4
scale = 1.85000
Li  8.5348900850  6.0350786580  14.7828632650
Li  2.8449633555  2.0116928860  4.9276210945
Li  0.0000000000  0.0000000000  0.0000000000
Ca  5.6899267110  4.0233857720  9.8552421705
4
scale = 1.90000
Li  8.7655627900  6.1981888920  15.1824001100
Li  2.9218542570  2.0660629640  5.0608000430
Li  0.0000000000  0.0000000000  0.0000000000
Ca  5.8437085140  4.1321259280  10.1216000670
4
scale = 1.95000
Li  8.9962354950  6.3612991260  15.5819369550
Li  2.9987451585  2.1204330420  5.1939789915
Li  0.0000000000  0.0000000000  0.0000000000
Ca  5.9974903170  4.2408660840  10.3879579635
4
scale = 2.00000
Li  9.2269082000  6.5244093600  15.9814738000
Li  3.0756360600  2.1748031200  5.3271579400
Li  0.0000000000  0.0000000000  0.0000000000
Ca  6.1512721200  4.3496062400  10.6543158600
4
scale = 2.05000
Li  9.4575809050  6.6875195940  16.3810106450
Li  3.1525269615  2.2291731980  5.4603368885
Li  0.0000000000  0.0000000000  0.0000000000
Ca  6.3050539230  4.4583463960  10.9206737565
4
scale = 2.10000
Li  9.6882536100  6.8506298280  16.7805474900
Li  3.2294178630  2.2835432760  5.5935158370
Li  0.0000000000  0.0000000000  0.0000000000
Ca  6.4588357260  4.5670865520  11.1870316530
4
scale = 2.15000
Li  9.9189263150  7.0137400620  17.1800843350
Li  3.3063087645  2.3379133540  5.7266947855
Li  0.0000000000  0.0000000000  0.0000000000
Ca  6.6126175290  4.6758267080  11.4533895495
4
scale = 2.20000
Li  10.1495990200  7.1768502960  17.5796211800
Li  3.3831996660  2.3922834320  5.8598737340
Li  0.0000000000  0.0000000000  0.0000000000
Ca  6.7663993320  4.7845668640  11.7197474460
4
scale = 2.25000
Li  10.3802717250  7.3399605300  17.9791580250
Li  3.4600905675  2.4466535100  5.9930526825
Li  0.0000000000  0.0000000000  0.0000000000
Ca  6.9201811350  4.8933070200  11.9861053425
4
scale = 2.30000
Li  10.6109444300  7.5030707640  18.3786948700
Li  3.5369814690  2.5010235880  6.1262316310
Li  0.0000000000  0.0000000000  0.0000000000
Ca  7.0739629380  5.0020471760  12.2524632390
4
scale = 2.35000
Li  10.8416171350  7.6661809980  18.7782317150
Li  3.6138723705  2.5553936660  6.2594105795
Li  0.0000000000  0.0000000000  0.0000000000
Ca  7.2277447410  5.1107873320  12.5188211355
4
scale = 2.40000
Li  11.0722898400  7.8292912320  19.1777685600
Li  3.6907632720  2.6097637440  6.3925895280
Li  0.0000000000  0.0000000000  0.0000000000
Ca  7.3815265440  5.2195274880  12.7851790320
4
scale = 2.45000
Li  11.3029625450  7.9924014660  19.5773054050
Li  3.7676541735  2.6641338220  6.5257684765
Li  0.0000000000  0.0000000000  0.0000000000
Ca  7.5353083470  5.3282676440  13.0515369285
