8
scale = 0.75000
Li  -0.0000000450  1.2784298100  0.9552339375
Li  1.3366824825  3.5936319600  0.9552339375
Li  -1.3366827525  3.5936319600  0.9552339375
Li  2.4438352200  2.9544170550  2.8657018125
Li  1.1071526925  0.6392149050  2.8657018125
Li  3.7805179200  0.6392149050  2.8657018125
Dy  -0.0000001050  2.8218979125  2.8657018125
Dy  2.4438352800  1.4109489525  0.9552339375
8
scale = 0.80000
Li  -0.0000000480  1.3636584640  1.0189162000
Li  1.4257946480  3.8332074240  1.0189162000
Li  -1.4257949360  3.8332074240  1.0189162000
Li  2.6067575680  3.1513781920  3.0567486000
Li  1.1809628720  0.6818292320  3.0567486000
Li  4.0325524480  0.6818292320  3.0567486000
Dy  -0.0000001120  3.0100244400  3.0567486000
Dy  2.6067576320  1.5050122160  1.0189162000
8
scale = 0.85000
Li  -0.0000000510  1.4488871180  1.0825984625
Li  1.5149068135  4.0727828880  1.0825984625
Li  -1.5149071195  4.0727828880  1.0825984625
Li  2.7696799160  3.3483393290  3.2477953875
Li  1.2547730515  0.7244435590  3.2477953875
Li  4.2845869760  0.7244435590  3.2477953875
Dy  -0.0000001190  3.1981509675  3.2477953875
Dy  2.7696799840  1.5990754795  1.0825984625
8
scale = 0.90000
Li  -0.0000000540  1.5341157720  1.1462807250
Li  1.6040189790  4.3123583520  1.1462807250
Li  -1.6040193030  4.3123583520  1.1462807250
Li  2.9326022640  3.5453004660  3.4388421750
Li  1.3285832310  0.7670578860  3.4388421750
Li  4.5366215040  0.7670578860  3.4388421750
Dy  -0.0000001260  3.3862774950  3.4388421750
Dy  2.9326023360  1.6931387430  1.1462807250
8
scale = 0.95000
Li  -0.0000000570  1.6193444260  1.2099629875
Li  1.6931311445  4.5519338160  1.2099629875
Li  -1.6931314865  4.5519338160  1.2099629875
Li  3.0955246120  3.7422616030  3.6298889625
Li  1.4023934105  0.8096722130  3.6298889625
Li  4.7886560320  0.8096722130  3.6298889625
Dy  -0.0000001330  3.5744040225  3.6298889625
Dy  3.0955246880  1.7872020065  1.2099629875
8
scale = 1.00000
Li  -0.0000000600  1.7045730800  1.2736452500
Li  1.7822433100  4.7915092800  1.2736452500
Li  -1.7822436700  4.7915092800  1.2736452500
Li  3.2584469600  3.9392227400  3.8209357500
Li  1.4762035900  0.8522865400  3.8209357500
Li  5.0406905600  0.8522865400  3.8209357500
Dy  -0.0000001400  3.7625305500  3.8209357500
Dy  3.2584470400  1.8812652700  1.2736452500
8
scale = 1.05000
Li  -0.0000000630  1.7898017340  1.3373275125
Li  1.8713554755  5.0310847440  1.3373275125
Li  -1.8713558535  5.0310847440  1.3373275125
Li  3.4213693080  4.1361838770  4.0119825375
Li  1.5500137695  0.8949008670  4.0119825375
Li  5.2927250880  0.8949008670  4.0119825375
Dy  -0.0000001470  3.9506570775  4.0119825375
Dy  3.4213693920  1.9753285335  1.3373275125
8
scale = 1.10000
Li  -0.0000000660  1.8750303880  1.4010097750
Li  1.9604676410  5.2706602080  1.4010097750
Li  -1.9604680370  5.2706602080  1.4010097750
Li  3.5842916560  4.3331450140  4.2030293250
Li  1.6238239490  0.9375151940  4.2030293250
Li  5.5447596160  0.9375151940  4.2030293250
Dy  -0.0000001540  4.1387836050  4.2030293250
Dy  3.5842917440  2.0693917970  1.4010097750
8
scale = 1.15000
Li  -0.0000000690  1.9602590420  1.4646920375
Li  2.0495798065  5.5102356720  1.4646920375
Li  -2.0495802205  5.5102356720  1.4646920375
Li  3.7472140040  4.5301061510  4.3940761125
Li  1.6976341285  0.9801295210  4.3940761125
Li  5.7967941440  0.9801295210  4.3940761125
Dy  -0.0000001610  4.3269101325  4.3940761125
Dy  3.7472140960  2.1634550605  1.4646920375
8
scale = 1.20000
Li  -0.0000000720  2.0454876960  1.5283743000
Li  2.1386919720  5.7498111360  1.5283743000
Li  -2.1386924040  5.7498111360  1.5283743000
Li  3.9101363520  4.7270672880  4.5851229000
Li  1.7714443080  1.0227438480  4.5851229000
Li  6.0488286720  1.0227438480  4.5851229000
Dy  -0.0000001680  4.5150366600  4.5851229000
Dy  3.9101364480  2.2575183240  1.5283743000
8
scale = 1.25000
Li  -0.0000000750  2.1307163500  1.5920565625
Li  2.2278041375  5.9893866000  1.5920565625
Li  -2.2278045875  5.9893866000  1.5920565625
Li  4.0730587000  4.9240284250  4.7761696875
Li  1.8452544875  1.0653581750  4.7761696875
Li  6.3008632000  1.0653581750  4.7761696875
Dy  -0.0000001750  4.7031631875  4.7761696875
Dy  4.0730588000  2.3515815875  1.5920565625
8
scale = 1.30000
Li  -0.0000000780  2.2159450040  1.6557388250
Li  2.3169163030  6.2289620640  1.6557388250
Li  -2.3169167710  6.2289620640  1.6557388250
Li  4.2359810480  5.1209895620  4.9672164750
Li  1.9190646670  1.1079725020  4.9672164750
Li  6.5528977280  1.1079725020  4.9672164750
Dy  -0.0000001820  4.8912897150  4.9672164750
Dy  4.2359811520  2.4456448510  1.6557388250
8
scale = 1.35000
Li  -0.0000000810  2.3011736580  1.7194210875
Li  2.4060284685  6.4685375280  1.7194210875
Li  -2.4060289545  6.4685375280  1.7194210875
Li  4.3989033960  5.3179506990  5.1582632625
Li  1.9928748465  1.1505868290  5.1582632625
Li  6.8049322560  1.1505868290  5.1582632625
Dy  -0.0000001890  5.0794162425  5.1582632625
Dy  4.3989035040  2.5397081145  1.7194210875
8
scale = 1.40000
Li  -0.0000000840  2.3864023120  1.7831033500
Li  2.4951406340  6.7081129920  1.7831033500
Li  -2.4951411380  6.7081129920  1.7831033500
Li  4.5618257440  5.5149118360  5.3493100500
Li  2.0666850260  1.1932011560  5.3493100500
Li  7.0569667840  1.1932011560  5.3493100500
Dy  -0.0000001960  5.2675427700  5.3493100500
Dy  4.5618258560  2.6337713780  1.7831033500
8
scale = 1.45000
Li  -0.0000000870  2.4716309660  1.8467856125
Li  2.5842527995  6.9476884560  1.8467856125
Li  -2.5842533215  6.9476884560  1.8467856125
Li  4.7247480920  5.7118729730  5.5403568375
Li  2.1404952055  1.2358154830  5.5403568375
Li  7.3090013120  1.2358154830  5.5403568375
Dy  -0.0000002030  5.4556692975  5.5403568375
Dy  4.7247482080  2.7278346415  1.8467856125
8
scale = 1.50000
Li  -0.0000000900  2.5568596200  1.9104678750
Li  2.6733649650  7.1872639200  1.9104678750
Li  -2.6733655050  7.1872639200  1.9104678750
Li  4.8876704400  5.9088341100  5.7314036250
Li  2.2143053850  1.2784298100  5.7314036250
Li  7.5610358400  1.2784298100  5.7314036250
Dy  -0.0000002100  5.6437958250  5.7314036250
Dy  4.8876705600  2.8218979050  1.9104678750
8
scale = 1.55000
Li  -0.0000000930  2.6420882740  1.9741501375
Li  2.7624771305  7.4268393840  1.9741501375
Li  -2.7624776885  7.4268393840  1.9741501375
Li  5.0505927880  6.1057952470  5.9224504125
Li  2.2881155645  1.3210441370  5.9224504125
Li  7.8130703680  1.3210441370  5.9224504125
Dy  -0.0000002170  5.8319223525  5.9224504125
Dy  5.0505929120  2.9159611685  1.9741501375
8
scale = 1.60000
Li  -0.0000000960  2.7273169280  2.0378324000
Li  2.8515892960  7.6664148480  2.0378324000
Li  -2.8515898720  7.6664148480  2.0378324000
Li  5.2135151360  6.3027563840  6.1134972000
Li  2.3619257440  1.3636584640  6.1134972000
Li  8.0651048960  1.3636584640  6.1134972000
Dy  -0.0000002240  6.0200488800  6.1134972000
Dy  5.2135152640  3.0100244320  2.0378324000
8
scale = 1.65000
Li  -0.0000000990  2.8125455820  2.1015146625
Li  2.9407014615  7.9059903120  2.1015146625
Li  -2.9407020555  7.9059903120  2.1015146625
Li  5.3764374840  6.4997175210  6.3045439875
Li  2.4357359235  1.4062727910  6.3045439875
Li  8.3171394240  1.4062727910  6.3045439875
Dy  -0.0000002310  6.2081754075  6.3045439875
Dy  5.3764376160  3.1040876955  2.1015146625
8
scale = 1.70000
Li  -0.0000001020  2.8977742360  2.1651969250
Li  3.0298136270  8.1455657760  2.1651969250
Li  -3.0298142390  8.1455657760  2.1651969250
Li  5.5393598320  6.6966786580  6.4955907750
Li  2.5095461030  1.4488871180  6.4955907750
Li  8.5691739520  1.4488871180  6.4955907750
Dy  -0.0000002380  6.3963019350  6.4955907750
Dy  5.5393599680  3.1981509590  2.1651969250
8
scale = 1.75000
Li  -0.0000001050  2.9830028900  2.2288791875
Li  3.1189257925  8.3851412400  2.2288791875
Li  -3.1189264225  8.3851412400  2.2288791875
Li  5.7022821800  6.8936397950  6.6866375625
Li  2.5833562825  1.4915014450  6.6866375625
Li  8.8212084800  1.4915014450  6.6866375625
Dy  -0.0000002450  6.5844284625  6.6866375625
Dy  5.7022823200  3.2922142225  2.2288791875
8
scale = 1.80000
Li  -0.0000001080  3.0682315440  2.2925614500
Li  3.2080379580  8.6247167040  2.2925614500
Li  -3.2080386060  8.6247167040  2.2925614500
Li  5.8652045280  7.0906009320  6.8776843500
Li  2.6571664620  1.5341157720  6.8776843500
Li  9.0732430080  1.5341157720  6.8776843500
Dy  -0.0000002520  6.7725549900  6.8776843500
Dy  5.8652046720  3.3862774860  2.2925614500
8
scale = 1.85000
Li  -0.0000001110  3.1534601980  2.3562437125
Li  3.2971501235  8.8642921680  2.3562437125
Li  -3.2971507895  8.8642921680  2.3562437125
Li  6.0281268760  7.2875620690  7.0687311375
Li  2.7309766415  1.5767300990  7.0687311375
Li  9.3252775360  1.5767300990  7.0687311375
Dy  -0.0000002590  6.9606815175  7.0687311375
Dy  6.0281270240  3.4803407495  2.3562437125
8
scale = 1.90000
Li  -0.0000001140  3.2386888520  2.4199259750
Li  3.3862622890  9.1038676320  2.4199259750
Li  -3.3862629730  9.1038676320  2.4199259750
Li  6.1910492240  7.4845232060  7.2597779250
Li  2.8047868210  1.6193444260  7.2597779250
Li  9.5773120640  1.6193444260  7.2597779250
Dy  -0.0000002660  7.1488080450  7.2597779250
Dy  6.1910493760  3.5744040130  2.4199259750
8
scale = 1.95000
Li  -0.0000001170  3.3239175060  2.4836082375
Li  3.4753744545  9.3434430960  2.4836082375
Li  -3.4753751565  9.3434430960  2.4836082375
Li  6.3539715720  7.6814843430  7.4508247125
Li  2.8785970005  1.6619587530  7.4508247125
Li  9.8293465920  1.6619587530  7.4508247125
Dy  -0.0000002730  7.3369345725  7.4508247125
Dy  6.3539717280  3.6684672765  2.4836082375
8
scale = 2.00000
Li  -0.0000001200  3.4091461600  2.5472905000
Li  3.5644866200  9.5830185600  2.5472905000
Li  -3.5644873400  9.5830185600  2.5472905000
Li  6.5168939200  7.8784454800  7.6418715000
Li  2.9524071800  1.7045730800  7.6418715000
Li  10.0813811200  1.7045730800  7.6418715000
Dy  -0.0000002800  7.5250611000  7.6418715000
Dy  6.5168940800  3.7625305400  2.5472905000
8
scale = 2.05000
Li  -0.0000001230  3.4943748140  2.6109727625
Li  3.6535987855  9.8225940240  2.6109727625
Li  -3.6535995235  9.8225940240  2.6109727625
Li  6.6798162680  8.0754066170  7.8329182875
Li  3.0262173595  1.7471874070  7.8329182875
Li  10.3334156480  1.7471874070  7.8329182875
Dy  -0.0000002870  7.7131876275  7.8329182875
Dy  6.6798164320  3.8565938035  2.6109727625
8
scale = 2.10000
Li  -0.0000001260  3.5796034680  2.6746550250
Li  3.7427109510  10.0621694880  2.6746550250
Li  -3.7427117070  10.0621694880  2.6746550250
Li  6.8427386160  8.2723677540  8.0239650750
Li  3.1000275390  1.7898017340  8.0239650750
Li  10.5854501760  1.7898017340  8.0239650750
Dy  -0.0000002940  7.9013141550  8.0239650750
Dy  6.8427387840  3.9506570670  2.6746550250
8
scale = 2.15000
Li  -0.0000001290  3.6648321220  2.7383372875
Li  3.8318231165  10.3017449520  2.7383372875
Li  -3.8318238905  10.3017449520  2.7383372875
Li  7.0056609640  8.4693288910  8.2150118625
Li  3.1738377185  1.8324160610  8.2150118625
Li  10.8374847040  1.8324160610  8.2150118625
Dy  -0.0000003010  8.0894406825  8.2150118625
Dy  7.0056611360  4.0447203305  2.7383372875
8
scale = 2.20000
Li  -0.0000001320  3.7500607760  2.8020195500
Li  3.9209352820  10.5413204160  2.8020195500
Li  -3.9209360740  10.5413204160  2.8020195500
Li  7.1685833120  8.6662900280  8.4060586500
Li  3.2476478980  1.8750303880  8.4060586500
Li  11.0895192320  1.8750303880  8.4060586500
Dy  -0.0000003080  8.2775672100  8.4060586500
Dy  7.1685834880  4.1387835940  2.8020195500
8
scale = 2.25000
Li  -0.0000001350  3.8352894300  2.8657018125
Li  4.0100474475  10.7808958800  2.8657018125
Li  -4.0100482575  10.7808958800  2.8657018125
Li  7.3315056600  8.8632511650  8.5971054375
Li  3.3214580775  1.9176447150  8.5971054375
Li  11.3415537600  1.9176447150  8.5971054375
Dy  -0.0000003150  8.4656937375  8.5971054375
Dy  7.3315058400  4.2328468575  2.8657018125
8
scale = 2.30000
Li  -0.0000001380  3.9205180840  2.9293840750
Li  4.0991596130  11.0204713440  2.9293840750
Li  -4.0991604410  11.0204713440  2.9293840750
Li  7.4944280080  9.0602123020  8.7881522250
Li  3.3952682570  1.9602590420  8.7881522250
Li  11.5935882880  1.9602590420  8.7881522250
Dy  -0.0000003220  8.6538202650  8.7881522250
Dy  7.4944281920  4.3269101210  2.9293840750
8
scale = 2.35000
Li  -0.0000001410  4.0057467380  2.9930663375
Li  4.1882717785  11.2600468080  2.9930663375
Li  -4.1882726245  11.2600468080  2.9930663375
Li  7.6573503560  9.2571734390  8.9791990125
Li  3.4690784365  2.0028733690  8.9791990125
Li  11.8456228160  2.0028733690  8.9791990125
Dy  -0.0000003290  8.8419467925  8.9791990125
Dy  7.6573505440  4.4209733845  2.9930663375
8
scale = 2.40000
Li  -0.0000001440  4.0909753920  3.0567486000
Li  4.2773839440  11.4996222720  3.0567486000
Li  -4.2773848080  11.4996222720  3.0567486000
Li  7.8202727040  9.4541345760  9.1702458000
Li  3.5428886160  2.0454876960  9.1702458000
Li  12.0976573440  2.0454876960  9.1702458000
Dy  -0.0000003360  9.0300733200  9.1702458000
Dy  7.8202728960  4.5150366480  3.0567486000
8
scale = 2.45000
Li  -0.0000001470  4.1762040460  3.1204308625
Li  4.3664961095  11.7391977360  3.1204308625
Li  -4.3664969915  11.7391977360  3.1204308625
Li  7.9831950520  9.6510957130  9.3612925875
Li  3.6166987955  2.0881020230  9.3612925875
Li  12.3496918720  2.0881020230  9.3612925875
Dy  -0.0000003430  9.2181998475  9.3612925875
Dy  7.9831952480  4.6090999115  3.1204308625
