4
scale = 0.75000
Li  1.1851828575  0.8380508325  2.0527969275
Li  3.5555485725  2.5141525050  6.1583907750
Li  2.3703657150  1.6761016725  4.1055938475
Eu  0.0000000000  0.0000000000  0.0000000000
4
scale = 0.80000
Li  1.2641950480  0.8939208880  2.1896500560
Li  3.7925851440  2.6817626720  6.5689501600
Li  2.5283900960  1.7878417840  4.3793001040
Eu  0.0000000000  0.0000000000  0.0000000000
4
scale = 0.85000
Li  1.3432072385  0.9497909435  2.3265031845
Li  4.0296217155  2.8493728390  6.9795095450
Li  2.6864144770  1.8995818955  4.6530063605
Eu  0.0000000000  0.0000000000  0.0000000000
4
scale = 0.90000
Li  1.4222194290  1.0056609990  2.4633563130
Li  4.2666582870  3.0169830060  7.3900689300
Li  2.8444388580  2.0113220070  4.9267126170
Eu  0.0000000000  0.0000000000  0.0000000000
4
scale = 0.95000
Li  1.5012316195  1.0615310545  2.6002094415
Li  4.5036948585  3.1845931730  7.8006283150
Li  3.0024632390  2.1230621185  5.2004188735
Eu  0.0000000000  0.0000000000  0.0000000000
4
scale = 1.00000
Li  1.5802438100  1.1174011100  2.7370625700
Li  4.7407314300  3.3522033400  8.2111877000
Li  3.1604876200  2.2348022300  5.4741251300
Eu  0.0000000000  0.0000000000  0.0000000000
4
scale = 1.05000
Li  1.6592560005  1.1732711655  2.8739156985
Li  4.9777680015  3.5198135070  8.6217470850
Li  3.3185120010  2.3465423415  5.7478313865
Eu  0.0000000000  0.0000000000  0.0000000000
4
scale = 1.10000
Li  1.7382681910  1.2291412210  3.0107688270
Li  5.2148045730  3.6874236740  9.0323064700
Li  3.4765363820  2.4582824530  6.0215376430
Eu  0.0000000000  0.0000000000  0.0000000000
4
scale = 1.15000
Li  1.8172803815  1.2850112765  3.1476219555
Li  5.4518411445  3.8550338410  9.4428658550
Li  3.6345607630  2.5700225645  6.2952438995
Eu  0.0000000000  0.0000000000  0.0000000000
4
scale = 1.20000
Li  1.8962925720  1.3408813320  3.2844750840
Li  5.6888777160  4.0226440080  9.8534252400
Li  3.7925851440  2.6817626760  6.5689501560
Eu  0.0000000000  0.0000000000  0.0000000000
4
scale = 1.25000
Li  1.9753047625  1.3967513875  3.4213282125
Li  5.9259142875  4.1902541750  10.2639846250
Li  3.9506095250  2.7935027875  6.8426564125
Eu  0.0000000000  0.0000000000  0.0000000000
4
scale = 1.30000
Li  2.0543169530  1.4526214430  3.5581813410
Li  6.1629508590  4.3578643420  10.6745440100
Li  4.1086339060  2.9052428990  7.1163626690
Eu  0.0000000000  0.0000000000  0.0000000000
4
scale = 1.35000
Li  2.1333291435  1.5084914985  3.6950344695
Li  6.3999874305  4.5254745090  11.0851033950
Li  4.2666582870  3.0169830105  7.3900689255
Eu  0.0000000000  0.0000000000  0.0000000000
4
scale = 1.40000
Li  2.2123413340  1.5643615540  3.8318875980
Li  6.6370240020  4.6930846760  11.4956627800
Li  4.4246826680  3.1287231220  7.6637751820
Eu  0.0000000000  0.0000000000  0.0000000000
4
scale = 1.45000
Li  2.2913535245  1.6202316095  3.9687407265
Li  6.8740605735  4.8606948430  11.9062221650
Li  4.5827070490  3.2404632335  7.9374814385
Eu  0.0000000000  0.0000000000  0.0000000000
4
scale = 1.50000
Li  2.3703657150  1.6761016650  4.1055938550
Li  7.1110971450  5.0283050100  12.3167815500
Li  4.7407314300  3.3522033450  8.2111876950
Eu  0.0000000000  0.0000000000  0.0000000000
4
scale = 1.55000
Li  2.4493779055  1.7319717205  4.2424469835
Li  7.3481337165  5.1959151770  12.7273409350
Li  4.8987558110  3.4639434565  8.4848939515
Eu  0.0000000000  0.0000000000  0.0000000000
4
scale = 1.60000
Li  2.5283900960  1.7878417760  4.3793001120
Li  7.5851702880  5.3635253440  13.1379003200
Li  5.0567801920  3.5756835680  8.7586002080
Eu  0.0000000000  0.0000000000  0.0000000000
4
scale = 1.65000
Li  2.6074022865  1.8437118315  4.5161532405
Li  7.8222068595  5.5311355110  13.5484597050
Li  5.2148045730  3.6874236795  9.0323064645
Eu  0.0000000000  0.0000000000  0.0000000000
4
scale = 1.70000
Li  2.6864144770  1.8995818870  4.6530063690
Li  8.0592434310  5.6987456780  13.9590190900
Li  5.3728289540  3.7991637910  9.3060127210
Eu  0.0000000000  0.0000000000  0.0000000000
4
scale = 1.75000
Li  2.7654266675  1.9554519425  4.7898594975
Li  8.2962800025  5.8663558450  14.3695784750
Li  5.5308533350  3.9109039025  9.5797189775
Eu  0.0000000000  0.0000000000  0.0000000000
4
scale = 1.80000
Li  2.8444388580  2.0113219980  4.9267126260
Li  8.5333165740  6.0339660120  14.7801378600
Li  5.6888777160  4.0226440140  9.8534252340
Eu  0.0000000000  0.0000000000  0.0000000000
4
scale = 1.85000
Li  2.9234510485  2.0671920535  5.0635657545
Li  8.7703531455  6.2015761790  15.1906972450
Li  5.8469020970  4.1343841255  10.1271314905
Eu  0.0000000000  0.0000000000  0.0000000000
4
scale = 1.90000
Li  3.0024632390  2.1230621090  5.2004188830
Li  9.0073897170  6.3691863460  15.6012566300
Li  6.0049264780  4.2461242370  10.4008377470
Eu  0.0000000000  0.0000000000  0.0000000000
4
scale = 1.95000
Li  3.0814754295  2.1789321645  5.3372720115
Li  9.2444262885  6.5367965130  16.0118160150
Li  6.1629508590  4.3578643485  10.6745440035
Eu  0.0000000000  0.0000000000  0.0000000000
4
scale = 2.00000
Li  3.1604876200  2.2348022200  5.4741251400
Li  9.4814628600  6.7044066800  16.4223754000
Li  6.3209752400  4.4696044600  10.9482502600
Eu  0.0000000000  0.0000000000  0.0000000000
4
scale = 2.05000
Li  3.2394998105  2.2906722755  5.6109782685
Li  9.7184994315  6.8720168470  16.8329347850
Li  6.4789996210  4.5813445715  11.2219565165
Eu  0.0000000000  0.0000000000  0.0000000000
4
scale = 2.10000
Li  3.3185120010  2.3465423310  5.7478313970
Li  9.9555360030  7.0396270140  17.2434941700
Li  6.6370240020  4.6930846830  11.4956627730
Eu  0.0000000000  0.0000000000  0.0000000000
4
scale = 2.15000
Li  3.3975241915  2.4024123865  5.8846845255
Li  10.1925725745  7.2072371810  17.6540535550
Li  6.7950483830  4.8048247945  11.7693690295
Eu  0.0000000000  0.0000000000  0.0000000000
4
scale = 2.20000
Li  3.4765363820  2.4582824420  6.0215376540
Li  10.4296091460  7.3748473480  18.0646129400
Li  6.9530727640  4.9165649060  12.0430752860
Eu  0.0000000000  0.0000000000  0.0000000000
4
scale = 2.25000
Li  3.5555485725  2.5141524975  6.1583907825
Li  10.6666457175  7.5424575150  18.4751723250
Li  7.1110971450  5.0283050175  12.3167815425
Eu  0.0000000000  0.0000000000  0.0000000000
4
scale = 2.30000
Li  3.6345607630  2.5700225530  6.2952439110
Li  10.9036822890  7.7100676820  18.8857317100
Li  7.2691215260  5.1400451290  12.5904877990
Eu  0.0000000000  0.0000000000  0.0000000000
4
scale = 2.35000
Li  3.7135729535  2.6258926085  6.4320970395
Li  11.1407188605  7.8776778490  19.2962910950
Li  7.4271459070  5.2517852405  12.8641940555
Eu  0.0000000000  0.0000000000  0.0000000000
4
scale = 2.40000
Li  3.7925851440  2.6817626640  6.5689501680
Li  11.3777554320  8.0452880160  19.7068504800
Li  7.5851702880  5.3635253520  13.1379003120
Eu  0.0000000000  0.0000000000  0.0000000000
4
scale = 2.45000
Li  3.8715973345  2.7376327195  6.7058032965
Li  11.6147920035  8.2128981830  20.1174098650
Li  7.7431946690  5.4752654635  13.4116065685
Eu  0.0000000000  0.0000000000  0.0000000000
