8
scale = 0.75000
Li  0.0000028125  1.3061677050  1.0108741875
Li  1.4654945025  3.8444732925  1.0108741875
Li  -1.4654880450  3.8444732925  1.0108741875
Li  2.5966648125  3.1913916900  3.0326225625
Li  1.1311731150  0.6530861025  3.0326225625
Li  4.0621556625  0.6530861025  3.0326225625
Eu  0.0000004950  2.9983729275  3.0326225625
Eu  2.5966671300  1.4991864675  1.0108741875
8
scale = 0.80000
Li  0.0000030000  1.3932455520  1.0782658000
Li  1.5631941360  4.1007715120  1.0782658000
Li  -1.5631872480  4.1007715120  1.0782658000
Li  2.7697758000  3.4041511360  3.2347974000
Li  1.2065846560  0.6966251760  3.2347974000
Li  4.3329660400  0.6966251760  3.2347974000
Eu  0.0000005280  3.1982644560  3.2347974000
Eu  2.7697782720  1.5991322320  1.0782658000
8
scale = 0.85000
Li  0.0000031875  1.4803233990  1.1456574125
Li  1.6608937695  4.3570697315  1.1456574125
Li  -1.6608864510  4.3570697315  1.1456574125
Li  2.9428867875  3.6169105820  3.4369722375
Li  1.2819961970  0.7401642495  3.4369722375
Li  4.6037764175  0.7401642495  3.4369722375
Eu  0.0000005610  3.3981559845  3.4369722375
Eu  2.9428894140  1.6990779965  1.1456574125
8
scale = 0.90000
Li  0.0000033750  1.5674012460  1.2130490250
Li  1.7585934030  4.6133679510  1.2130490250
Li  -1.7585856540  4.6133679510  1.2130490250
Li  3.1159977750  3.8296700280  3.6391470750
Li  1.3574077380  0.7837033230  3.6391470750
Li  4.8745867950  0.7837033230  3.6391470750
Eu  0.0000005940  3.5980475130  3.6391470750
Eu  3.1160005560  1.7990237610  1.2130490250
8
scale = 0.95000
Li  0.0000035625  1.6544790930  1.2804406375
Li  1.8562930365  4.8696661705  1.2804406375
Li  -1.8562848570  4.8696661705  1.2804406375
Li  3.2891087625  4.0424294740  3.8413219125
Li  1.4328192790  0.8272423965  3.8413219125
Li  5.1453971725  0.8272423965  3.8413219125
Eu  0.0000006270  3.7979390415  3.8413219125
Eu  3.2891116980  1.8989695255  1.2804406375
8
scale = 1.00000
Li  0.0000037500  1.7415569400  1.3478322500
Li  1.9539926700  5.1259643900  1.3478322500
Li  -1.9539840600  5.1259643900  1.3478322500
Li  3.4622197500  4.2551889200  4.0434967500
Li  1.5082308200  0.8707814700  4.0434967500
Li  5.4162075500  0.8707814700  4.0434967500
Eu  0.0000006600  3.9978305700  4.0434967500
Eu  3.4622228400  1.9989152900  1.3478322500
8
scale = 1.05000
Li  0.0000039375  1.8286347870  1.4152238625
Li  2.0516923035  5.3822626095  1.4152238625
Li  -2.0516832630  5.3822626095  1.4152238625
Li  3.6353307375  4.4679483660  4.2456715875
Li  1.5836423610  0.9143205435  4.2456715875
Li  5.6870179275  0.9143205435  4.2456715875
Eu  0.0000006930  4.1977220985  4.2456715875
Eu  3.6353339820  2.0988610545  1.4152238625
8
scale = 1.10000
Li  0.0000041250  1.9157126340  1.4826154750
Li  2.1493919370  5.6385608290  1.4826154750
Li  -2.1493824660  5.6385608290  1.4826154750
Li  3.8084417250  4.6807078120  4.4478464250
Li  1.6590539020  0.9578596170  4.4478464250
Li  5.9578283050  0.9578596170  4.4478464250
Eu  0.0000007260  4.3976136270  4.4478464250
Eu  3.8084451240  2.1988068190  1.4826154750
8
scale = 1.15000
Li  0.0000043125  2.0027904810  1.5500070875
Li  2.2470915705  5.8948590485  1.5500070875
Li  -2.2470816690  5.8948590485  1.5500070875
Li  3.9815527125  4.8934672580  4.6500212625
Li  1.7344654430  1.0013986905  4.6500212625
Li  6.2286386825  1.0013986905  4.6500212625
Eu  0.0000007590  4.5975051555  4.6500212625
Eu  3.9815562660  2.2987525835  1.5500070875
8
scale = 1.20000
Li  0.0000045000  2.0898683280  1.6173987000
Li  2.3447912040  6.1511572680  1.6173987000
Li  -2.3447808720  6.1511572680  1.6173987000
Li  4.1546637000  5.1062267040  4.8521961000
Li  1.8098769840  1.0449377640  4.8521961000
Li  6.4994490600  1.0449377640  4.8521961000
Eu  0.0000007920  4.7973966840  4.8521961000
Eu  4.1546674080  2.3986983480  1.6173987000
8
scale = 1.25000
Li  0.0000046875  2.1769461750  1.6847903125
Li  2.4424908375  6.4074554875  1.6847903125
Li  -2.4424800750  6.4074554875  1.6847903125
Li  4.3277746875  5.3189861500  5.0543709375
Li  1.8852885250  1.0884768375  5.0543709375
Li  6.7702594375  1.0884768375  5.0543709375
Eu  0.0000008250  4.9972882125  5.0543709375
Eu  4.3277785500  2.4986441125  1.6847903125
8
scale = 1.30000
Li  0.0000048750  2.2640240220  1.7521819250
Li  2.5401904710  6.6637537070  1.7521819250
Li  -2.5401792780  6.6637537070  1.7521819250
Li  4.5008856750  5.5317455960  5.2565457750
Li  1.9607000660  1.1320159110  5.2565457750
Li  7.0410698150  1.1320159110  5.2565457750
Eu  0.0000008580  5.1971797410  5.2565457750
Eu  4.5008896920  2.5985898770  1.7521819250
8
scale = 1.35000
Li  0.0000050625  2.3511018690  1.8195735375
Li  2.6378901045  6.9200519265  1.8195735375
Li  -2.6378784810  6.9200519265  1.8195735375
Li  4.6739966625  5.7445050420  5.4587206125
Li  2.0361116070  1.1755549845  5.4587206125
Li  7.3118801925  1.1755549845  5.4587206125
Eu  0.0000008910  5.3970712695  5.4587206125
Eu  4.6740008340  2.6985356415  1.8195735375
8
scale = 1.40000
Li  0.0000052500  2.4381797160  1.8869651500
Li  2.7355897380  7.1763501460  1.8869651500
Li  -2.7355776840  7.1763501460  1.8869651500
Li  4.8471076500  5.9572644880  5.6608954500
Li  2.1115231480  1.2190940580  5.6608954500
Li  7.5826905700  1.2190940580  5.6608954500
Eu  0.0000009240  5.5969627980  5.6608954500
Eu  4.8471119760  2.7984814060  1.8869651500
8
scale = 1.45000
Li  0.0000054375  2.5252575630  1.9543567625
Li  2.8332893715  7.4326483655  1.9543567625
Li  -2.8332768870  7.4326483655  1.9543567625
Li  5.0202186375  6.1700239340  5.8630702875
Li  2.1869346890  1.2626331315  5.8630702875
Li  7.8535009475  1.2626331315  5.8630702875
Eu  0.0000009570  5.7968543265  5.8630702875
Eu  5.0202231180  2.8984271705  1.9543567625
8
scale = 1.50000
Li  0.0000056250  2.6123354100  2.0217483750
Li  2.9309890050  7.6889465850  2.0217483750
Li  -2.9309760900  7.6889465850  2.0217483750
Li  5.1933296250  6.3827833800  6.0652451250
Li  2.2623462300  1.3061722050  6.0652451250
Li  8.1243113250  1.3061722050  6.0652451250
Eu  0.0000009900  5.9967458550  6.0652451250
Eu  5.1933342600  2.9983729350  2.0217483750
8
scale = 1.55000
Li  0.0000058125  2.6994132570  2.0891399875
Li  3.0286886385  7.9452448045  2.0891399875
Li  -3.0286752930  7.9452448045  2.0891399875
Li  5.3664406125  6.5955428260  6.2674199625
Li  2.3377577710  1.3497112785  6.2674199625
Li  8.3951217025  1.3497112785  6.2674199625
Eu  0.0000010230  6.1966373835  6.2674199625
Eu  5.3664454020  3.0983186995  2.0891399875
8
scale = 1.60000
Li  0.0000060000  2.7864911040  2.1565316000
Li  3.1263882720  8.2015430240  2.1565316000
Li  -3.1263744960  8.2015430240  2.1565316000
Li  5.5395516000  6.8083022720  6.4695948000
Li  2.4131693120  1.3932503520  6.4695948000
Li  8.6659320800  1.3932503520  6.4695948000
Eu  0.0000010560  6.3965289120  6.4695948000
Eu  5.5395565440  3.1982644640  2.1565316000
8
scale = 1.65000
Li  0.0000061875  2.8735689510  2.2239232125
Li  3.2240879055  8.4578412435  2.2239232125
Li  -3.2240736990  8.4578412435  2.2239232125
Li  5.7126625875  7.0210617180  6.6717696375
Li  2.4885808530  1.4367894255  6.6717696375
Li  8.9367424575  1.4367894255  6.6717696375
Eu  0.0000010890  6.5964204405  6.6717696375
Eu  5.7126676860  3.2982102285  2.2239232125
8
scale = 1.70000
Li  0.0000063750  2.9606467980  2.2913148250
Li  3.3217875390  8.7141394630  2.2913148250
Li  -3.3217729020  8.7141394630  2.2913148250
Li  5.8857735750  7.2338211640  6.8739444750
Li  2.5639923940  1.4803284990  6.8739444750
Li  9.2075528350  1.4803284990  6.8739444750
Eu  0.0000011220  6.7963119690  6.8739444750
Eu  5.8857788280  3.3981559930  2.2913148250
8
scale = 1.75000
Li  0.0000065625  3.0477246450  2.3587064375
Li  3.4194871725  8.9704376825  2.3587064375
Li  -3.4194721050  8.9704376825  2.3587064375
Li  6.0588845625  7.4465806100  7.0761193125
Li  2.6394039350  1.5238675725  7.0761193125
Li  9.4783632125  1.5238675725  7.0761193125
Eu  0.0000011550  6.9962034975  7.0761193125
Eu  6.0588899700  3.4981017575  2.3587064375
8
scale = 1.80000
Li  0.0000067500  3.1348024920  2.4260980500
Li  3.5171868060  9.2267359020  2.4260980500
Li  -3.5171713080  9.2267359020  2.4260980500
Li  6.2319955500  7.6593400560  7.2782941500
Li  2.7148154760  1.5674066460  7.2782941500
Li  9.7491735900  1.5674066460  7.2782941500
Eu  0.0000011880  7.1960950260  7.2782941500
Eu  6.2320011120  3.5980475220  2.4260980500
8
scale = 1.85000
Li  0.0000069375  3.2218803390  2.4934896625
Li  3.6148864395  9.4830341215  2.4934896625
Li  -3.6148705110  9.4830341215  2.4934896625
Li  6.4051065375  7.8720995020  7.4804689875
Li  2.7902270170  1.6109457195  7.4804689875
Li  10.0199839675  1.6109457195  7.4804689875
Eu  0.0000012210  7.3959865545  7.4804689875
Eu  6.4051122540  3.6979932865  2.4934896625
8
scale = 1.90000
Li  0.0000071250  3.3089581860  2.5608812750
Li  3.7125860730  9.7393323410  2.5608812750
Li  -3.7125697140  9.7393323410  2.5608812750
Li  6.5782175250  8.0848589480  7.6826438250
Li  2.8656385580  1.6544847930  7.6826438250
Li  10.2907943450  1.6544847930  7.6826438250
Eu  0.0000012540  7.5958780830  7.6826438250
Eu  6.5782233960  3.7979390510  2.5608812750
8
scale = 1.95000
Li  0.0000073125  3.3960360330  2.6282728875
Li  3.8102857065  9.9956305605  2.6282728875
Li  -3.8102689170  9.9956305605  2.6282728875
Li  6.7513285125  8.2976183940  7.8848186625
Li  2.9410500990  1.6980238665  7.8848186625
Li  10.5616047225  1.6980238665  7.8848186625
Eu  0.0000012870  7.7957696115  7.8848186625
Eu  6.7513345380  3.8978848155  2.6282728875
8
scale = 2.00000
Li  0.0000075000  3.4831138800  2.6956645000
Li  3.9079853400  10.2519287800  2.6956645000
Li  -3.9079681200  10.2519287800  2.6956645000
Li  6.9244395000  8.5103778400  8.0869935000
Li  3.0164616400  1.7415629400  8.0869935000
Li  10.8324151000  1.7415629400  8.0869935000
Eu  0.0000013200  7.9956611400  8.0869935000
Eu  6.9244456800  3.9978305800  2.6956645000
8
scale = 2.05000
Li  0.0000076875  3.5701917270  2.7630561125
Li  4.0056849735  10.5082269995  2.7630561125
Li  -4.0056673230  10.5082269995  2.7630561125
Li  7.0975504875  8.7231372860  8.2891683375
Li  3.0918731810  1.7851020135  8.2891683375
Li  11.1032254775  1.7851020135  8.2891683375
Eu  0.0000013530  8.1955526685  8.2891683375
Eu  7.0975568220  4.0977763445  2.7630561125
8
scale = 2.10000
Li  0.0000078750  3.6572695740  2.8304477250
Li  4.1033846070  10.7645252190  2.8304477250
Li  -4.1033665260  10.7645252190  2.8304477250
Li  7.2706614750  8.9358967320  8.4913431750
Li  3.1672847220  1.8286410870  8.4913431750
Li  11.3740358550  1.8286410870  8.4913431750
Eu  0.0000013860  8.3954441970  8.4913431750
Eu  7.2706679640  4.1977221090  2.8304477250
8
scale = 2.15000
Li  0.0000080625  3.7443474210  2.8978393375
Li  4.2010842405  11.0208234385  2.8978393375
Li  -4.2010657290  11.0208234385  2.8978393375
Li  7.4437724625  9.1486561780  8.6935180125
Li  3.2426962630  1.8721801605  8.6935180125
Li  11.6448462325  1.8721801605  8.6935180125
Eu  0.0000014190  8.5953357255  8.6935180125
Eu  7.4437791060  4.2976678735  2.8978393375
8
scale = 2.20000
Li  0.0000082500  3.8314252680  2.9652309500
Li  4.2987838740  11.2771216580  2.9652309500
Li  -4.2987649320  11.2771216580  2.9652309500
Li  7.6168834500  9.3614156240  8.8956928500
Li  3.3181078040  1.9157192340  8.8956928500
Li  11.9156566100  1.9157192340  8.8956928500
Eu  0.0000014520  8.7952272540  8.8956928500
Eu  7.6168902480  4.3976136380  2.9652309500
8
scale = 2.25000
Li  0.0000084375  3.9185031150  3.0326225625
Li  4.3964835075  11.5334198775  3.0326225625
Li  -4.3964641350  11.5334198775  3.0326225625
Li  7.7899944375  9.5741750700  9.0978676875
Li  3.3935193450  1.9592583075  9.0978676875
Li  12.1864669875  1.9592583075  9.0978676875
Eu  0.0000014850  8.9951187825  9.0978676875
Eu  7.7900013900  4.4975594025  3.0326225625
8
scale = 2.30000
Li  0.0000086250  4.0055809620  3.1000141750
Li  4.4941831410  11.7897180970  3.1000141750
Li  -4.4941633380  11.7897180970  3.1000141750
Li  7.9631054250  9.7869345160  9.3000425250
Li  3.4689308860  2.0027973810  9.3000425250
Li  12.4572773650  2.0027973810  9.3000425250
Eu  0.0000015180  9.1950103110  9.3000425250
Eu  7.9631125320  4.5975051670  3.1000141750
8
scale = 2.35000
Li  0.0000088125  4.0926588090  3.1674057875
Li  4.5918827745  12.0460163165  3.1674057875
Li  -4.5918625410  12.0460163165  3.1674057875
Li  8.1362164125  9.9996939620  9.5022173625
Li  3.5443424270  2.0463364545  9.5022173625
Li  12.7280877425  2.0463364545  9.5022173625
Eu  0.0000015510  9.3949018395  9.5022173625
Eu  8.1362236740  4.6974509315  3.1674057875
8
scale = 2.40000
Li  0.0000090000  4.1797366560  3.2347974000
Li  4.6895824080  12.3023145360  3.2347974000
Li  -4.6895617440  12.3023145360  3.2347974000
Li  8.3093274000  10.2124534080  9.7043922000
Li  3.6197539680  2.0898755280  9.7043922000
Li  12.9988981200  2.0898755280  9.7043922000
Eu  0.0000015840  9.5947933680  9.7043922000
Eu  8.3093348160  4.7973966960  3.2347974000
8
scale = 2.45000
Li  0.0000091875  4.2668145030  3.3021890125
Li  4.7872820415  12.5586127555  3.3021890125
Li  -4.7872609470  12.5586127555  3.3021890125
Li  8.4824383875  10.4252128540  9.9065670375
Li  3.6951655090  2.1334146015  9.9065670375
Li  13.2697084975  2.1334146015  9.9065670375
Eu  0.0000016170  9.7946848965  9.9065670375
Eu  8.4824459580  4.8973424605  3.3021890125
