4
scale = 0.75000
Li  0.0000000000  0.0000000000  0.0000000000
Li  1.9263826650  1.3621582425  3.3365926500
Li  0.9631951875  0.6810818475  1.6683030000
Ga  2.8895778525  2.0432400900  5.0048956500
4
scale = 0.80000
Li  0.0000000000  0.0000000000  0.0000000000
Li  2.0548081760  1.4529687920  3.5590321600
Li  1.0274082000  0.7264873040  1.7795232000
Ga  3.0822163760  2.1794560960  5.3385553600
4
scale = 0.85000
Li  0.0000000000  0.0000000000  0.0000000000
Li  2.1832336870  1.5437793415  3.7814716700
Li  1.0916212125  0.7718927605  1.8907434000
Ga  3.2748548995  2.3156721020  5.6722150700
4
scale = 0.90000
Li  0.0000000000  0.0000000000  0.0000000000
Li  2.3116591980  1.6345898910  4.0039111800
Li  1.1558342250  0.8172982170  2.0019636000
Ga  3.4674934230  2.4518881080  6.0058747800
4
scale = 0.95000
Li  0.0000000000  0.0000000000  0.0000000000
Li  2.4400847090  1.7254004405  4.2263506900
Li  1.2200472375  0.8627036735  2.1131838000
Ga  3.6601319465  2.5881041140  6.3395344900
4
scale = 1.00000
Li  0.0000000000  0.0000000000  0.0000000000
Li  2.5685102200  1.8162109900  4.4487902000
Li  1.2842602500  0.9081091300  2.2244040000
Ga  3.8527704700  2.7243201200  6.6731942000
4
scale = 1.05000
Li  0.0000000000  0.0000000000  0.0000000000
Li  2.6969357310  1.9070215395  4.6712297100
Li  1.3484732625  0.9535145865  2.3356242000
Ga  4.0454089935  2.8605361260  7.0068539100
4
scale = 1.10000
Li  0.0000000000  0.0000000000  0.0000000000
Li  2.8253612420  1.9978320890  4.8936692200
Li  1.4126862750  0.9989200430  2.4468444000
Ga  4.2380475170  2.9967521320  7.3405136200
4
scale = 1.15000
Li  0.0000000000  0.0000000000  0.0000000000
Li  2.9537867530  2.0886426385  5.1161087300
Li  1.4768992875  1.0443254995  2.5580646000
Ga  4.4306860405  3.1329681380  7.6741733300
4
scale = 1.20000
Li  0.0000000000  0.0000000000  0.0000000000
Li  3.0822122640  2.1794531880  5.3385482400
Li  1.5411123000  1.0897309560  2.6692848000
Ga  4.6233245640  3.2691841440  8.0078330400
4
scale = 1.25000
Li  0.0000000000  0.0000000000  0.0000000000
Li  3.2106377750  2.2702637375  5.5609877500
Li  1.6053253125  1.1351364125  2.7805050000
Ga  4.8159630875  3.4054001500  8.3414927500
4
scale = 1.30000
Li  0.0000000000  0.0000000000  0.0000000000
Li  3.3390632860  2.3610742870  5.7834272600
Li  1.6695383250  1.1805418690  2.8917252000
Ga  5.0086016110  3.5416161560  8.6751524600
4
scale = 1.35000
Li  0.0000000000  0.0000000000  0.0000000000
Li  3.4674887970  2.4518848365  6.0058667700
Li  1.7337513375  1.2259473255  3.0029454000
Ga  5.2012401345  3.6778321620  9.0088121700
4
scale = 1.40000
Li  0.0000000000  0.0000000000  0.0000000000
Li  3.5959143080  2.5426953860  6.2283062800
Li  1.7979643500  1.2713527820  3.1141656000
Ga  5.3938786580  3.8140481680  9.3424718800
4
scale = 1.45000
Li  0.0000000000  0.0000000000  0.0000000000
Li  3.7243398190  2.6335059355  6.4507457900
Li  1.8621773625  1.3167582385  3.2253858000
Ga  5.5865171815  3.9502641740  9.6761315900
4
scale = 1.50000
Li  0.0000000000  0.0000000000  0.0000000000
Li  3.8527653300  2.7243164850  6.6731853000
Li  1.9263903750  1.3621636950  3.3366060000
Ga  5.7791557050  4.0864801800  10.0097913000
4
scale = 1.55000
Li  0.0000000000  0.0000000000  0.0000000000
Li  3.9811908410  2.8151270345  6.8956248100
Li  1.9906033875  1.4075691515  3.4478262000
Ga  5.9717942285  4.2226961860  10.3434510100
4
scale = 1.60000
Li  0.0000000000  0.0000000000  0.0000000000
Li  4.1096163520  2.9059375840  7.1180643200
Li  2.0548164000  1.4529746080  3.5590464000
Ga  6.1644327520  4.3589121920  10.6771107200
4
scale = 1.65000
Li  0.0000000000  0.0000000000  0.0000000000
Li  4.2380418630  2.9967481335  7.3405038300
Li  2.1190294125  1.4983800645  3.6702666000
Ga  6.3570712755  4.4951281980  11.0107704300
4
scale = 1.70000
Li  0.0000000000  0.0000000000  0.0000000000
Li  4.3664673740  3.0875586830  7.5629433400
Li  2.1832424250  1.5437855210  3.7814868000
Ga  6.5497097990  4.6313442040  11.3444301400
4
scale = 1.75000
Li  0.0000000000  0.0000000000  0.0000000000
Li  4.4948928850  3.1783692325  7.7853828500
Li  2.2474554375  1.5891909775  3.8927070000
Ga  6.7423483225  4.7675602100  11.6780898500
4
scale = 1.80000
Li  0.0000000000  0.0000000000  0.0000000000
Li  4.6233183960  3.2691797820  8.0078223600
Li  2.3116684500  1.6345964340  4.0039272000
Ga  6.9349868460  4.9037762160  12.0117495600
4
scale = 1.85000
Li  0.0000000000  0.0000000000  0.0000000000
Li  4.7517439070  3.3599903315  8.2302618700
Li  2.3758814625  1.6800018905  4.1151474000
Ga  7.1276253695  5.0399922220  12.3454092700
4
scale = 1.90000
Li  0.0000000000  0.0000000000  0.0000000000
Li  4.8801694180  3.4508008810  8.4527013800
Li  2.4400944750  1.7254073470  4.2263676000
Ga  7.3202638930  5.1762082280  12.6790689800
4
scale = 1.95000
Li  0.0000000000  0.0000000000  0.0000000000
Li  5.0085949290  3.5416114305  8.6751408900
Li  2.5043074875  1.7708128035  4.3375878000
Ga  7.5129024165  5.3124242340  13.0127286900
4
scale = 2.00000
Li  0.0000000000  0.0000000000  0.0000000000
Li  5.1370204400  3.6324219800  8.8975804000
Li  2.5685205000  1.8162182600  4.4488080000
Ga  7.7055409400  5.4486402400  13.3463884000
4
scale = 2.05000
Li  0.0000000000  0.0000000000  0.0000000000
Li  5.2654459510  3.7232325295  9.1200199100
Li  2.6327335125  1.8616237165  4.5600282000
Ga  7.8981794635  5.5848562460  13.6800481100
4
scale = 2.10000
Li  0.0000000000  0.0000000000  0.0000000000
Li  5.3938714620  3.8140430790  9.3424594200
Li  2.6969465250  1.9070291730  4.6712484000
Ga  8.0908179870  5.7210722520  14.0137078200
4
scale = 2.15000
Li  0.0000000000  0.0000000000  0.0000000000
Li  5.5222969730  3.9048536285  9.5648989300
Li  2.7611595375  1.9524346295  4.7824686000
Ga  8.2834565105  5.8572882580  14.3473675300
4
scale = 2.20000
Li  0.0000000000  0.0000000000  0.0000000000
Li  5.6507224840  3.9956641780  9.7873384400
Li  2.8253725500  1.9978400860  4.8936888000
Ga  8.4760950340  5.9935042640  14.6810272400
4
scale = 2.25000
Li  0.0000000000  0.0000000000  0.0000000000
Li  5.7791479950  4.0864747275  10.0097779500
Li  2.8895855625  2.0432455425  5.0049090000
Ga  8.6687335575  6.1297202700  15.0146869500
4
scale = 2.30000
Li  0.0000000000  0.0000000000  0.0000000000
Li  5.9075735060  4.1772852770  10.2322174600
Li  2.9537985750  2.0886509990  5.1161292000
Ga  8.8613720810  6.2659362760  15.3483466600
4
scale = 2.35000
Li  0.0000000000  0.0000000000  0.0000000000
Li  6.0359990170  4.2680958265  10.4546569700
Li  3.0180115875  2.1340564555  5.2273494000
Ga  9.0540106045  6.4021522820  15.6820063700
4
scale = 2.40000
Li  0.0000000000  0.0000000000  0.0000000000
Li  6.1644245280  4.3589063760  10.6770964800
Li  3.0822246000  2.1794619120  5.3385696000
Ga  9.2466491280  6.5383682880  16.0156660800
4
scale = 2.45000
Li  0.0000000000  0.0000000000  0.0000000000
Li  6.2928500390  4.4497169255  10.8995359900
Li  3.1464376125  2.2248673685  5.4497898000
Ga  9.4392876515  6.6745842940  16.3493257900
