8
scale = 0.75000
Li  -0.0000026025  1.2476819475  0.9450060000
Li  1.3266329625  3.5454825525  0.9450060000
Li  -1.3266388725  3.5454825525  0.9450060000
Li  2.4071610300  2.9216394975  2.8350180000
Li  1.0805254650  0.6238388925  2.8350180000
Li  3.7337973000  0.6238388925  2.8350180000
Gd  -0.0000004275  2.7795476325  2.8350180000
Gd  2.4071588550  1.3897738125  0.9450060000
8
scale = 0.80000
Li  -0.0000027760  1.3308607440  1.0080064000
Li  1.4150751600  3.7818480560  1.0080064000
Li  -1.4150814640  3.7818480560  1.0080064000
Li  2.5676384320  3.1164154640  3.0240192000
Li  1.1525604960  0.6654281520  3.0240192000
Li  3.9827171200  0.6654281520  3.0240192000
Gd  -0.0000004560  2.9648508080  3.0240192000
Gd  2.5676361120  1.4824254000  1.0080064000
8
scale = 0.85000
Li  -0.0000029495  1.4140395405  1.0710068000
Li  1.5035173575  4.0182135595  1.0710068000
Li  -1.5035240555  4.0182135595  1.0710068000
Li  2.7281158340  3.3111914305  3.2130204000
Li  1.2245955270  0.7070174115  3.2130204000
Li  4.2316369400  0.7070174115  3.2130204000
Gd  -0.0000004845  3.1501539835  3.2130204000
Gd  2.7281133690  1.5750769875  1.0710068000
8
scale = 0.90000
Li  -0.0000031230  1.4972183370  1.1340072000
Li  1.5919595550  4.2545790630  1.1340072000
Li  -1.5919666470  4.2545790630  1.1340072000
Li  2.8885932360  3.5059673970  3.4020216000
Li  1.2966305580  0.7486066710  3.4020216000
Li  4.4805567600  0.7486066710  3.4020216000
Gd  -0.0000005130  3.3354571590  3.4020216000
Gd  2.8885906260  1.6677285750  1.1340072000
8
scale = 0.95000
Li  -0.0000032965  1.5803971335  1.1970076000
Li  1.6804017525  4.4909445665  1.1970076000
Li  -1.6804092385  4.4909445665  1.1970076000
Li  3.0490706380  3.7007433635  3.5910228000
Li  1.3686655890  0.7901959305  3.5910228000
Li  4.7294765800  0.7901959305  3.5910228000
Gd  -0.0000005415  3.5207603345  3.5910228000
Gd  3.0490678830  1.7603801625  1.1970076000
8
scale = 1.00000
Li  -0.0000034700  1.6635759300  1.2600080000
Li  1.7688439500  4.7273100700  1.2600080000
Li  -1.7688518300  4.7273100700  1.2600080000
Li  3.2095480400  3.8955193300  3.7800240000
Li  1.4407006200  0.8317851900  3.7800240000
Li  4.9783964000  0.8317851900  3.7800240000
Gd  -0.0000005700  3.7060635100  3.7800240000
Gd  3.2095451400  1.8530317500  1.2600080000
8
scale = 1.05000
Li  -0.0000036435  1.7467547265  1.3230084000
Li  1.8572861475  4.9636755735  1.3230084000
Li  -1.8572944215  4.9636755735  1.3230084000
Li  3.3700254420  4.0902952965  3.9690252000
Li  1.5127356510  0.8733744495  3.9690252000
Li  5.2273162200  0.8733744495  3.9690252000
Gd  -0.0000005985  3.8913666855  3.9690252000
Gd  3.3700223970  1.9456833375  1.3230084000
8
scale = 1.10000
Li  -0.0000038170  1.8299335230  1.3860088000
Li  1.9457283450  5.2000410770  1.3860088000
Li  -1.9457370130  5.2000410770  1.3860088000
Li  3.5305028440  4.2850712630  4.1580264000
Li  1.5847706820  0.9149637090  4.1580264000
Li  5.4762360400  0.9149637090  4.1580264000
Gd  -0.0000006270  4.0766698610  4.1580264000
Gd  3.5304996540  2.0383349250  1.3860088000
8
scale = 1.15000
Li  -0.0000039905  1.9131123195  1.4490092000
Li  2.0341705425  5.4364065805  1.4490092000
Li  -2.0341796045  5.4364065805  1.4490092000
Li  3.6909802460  4.4798472295  4.3470276000
Li  1.6568057130  0.9565529685  4.3470276000
Li  5.7251558600  0.9565529685  4.3470276000
Gd  -0.0000006555  4.2619730365  4.3470276000
Gd  3.6909769110  2.1309865125  1.4490092000
8
scale = 1.20000
Li  -0.0000041640  1.9962911160  1.5120096000
Li  2.1226127400  5.6727720840  1.5120096000
Li  -2.1226221960  5.6727720840  1.5120096000
Li  3.8514576480  4.6746231960  4.5360288000
Li  1.7288407440  0.9981422280  4.5360288000
Li  5.9740756800  0.9981422280  4.5360288000
Gd  -0.0000006840  4.4472762120  4.5360288000
Gd  3.8514541680  2.2236381000  1.5120096000
8
scale = 1.25000
Li  -0.0000043375  2.0794699125  1.5750100000
Li  2.2110549375  5.9091375875  1.5750100000
Li  -2.2110647875  5.9091375875  1.5750100000
Li  4.0119350500  4.8693991625  4.7250300000
Li  1.8008757750  1.0397314875  4.7250300000
Li  6.2229955000  1.0397314875  4.7250300000
Gd  -0.0000007125  4.6325793875  4.7250300000
Gd  4.0119314250  2.3162896875  1.5750100000
8
scale = 1.30000
Li  -0.0000045110  2.1626487090  1.6380104000
Li  2.2994971350  6.1455030910  1.6380104000
Li  -2.2995073790  6.1455030910  1.6380104000
Li  4.1724124520  5.0641751290  4.9140312000
Li  1.8729108060  1.0813207470  4.9140312000
Li  6.4719153200  1.0813207470  4.9140312000
Gd  -0.0000007410  4.8178825630  4.9140312000
Gd  4.1724086820  2.4089412750  1.6380104000
8
scale = 1.35000
Li  -0.0000046845  2.2458275055  1.7010108000
Li  2.3879393325  6.3818685945  1.7010108000
Li  -2.3879499705  6.3818685945  1.7010108000
Li  4.3328898540  5.2589510955  5.1030324000
Li  1.9449458370  1.1229100065  5.1030324000
Li  6.7208351400  1.1229100065  5.1030324000
Gd  -0.0000007695  5.0031857385  5.1030324000
Gd  4.3328859390  2.5015928625  1.7010108000
8
scale = 1.40000
Li  -0.0000048580  2.3290063020  1.7640112000
Li  2.4763815300  6.6182340980  1.7640112000
Li  -2.4763925620  6.6182340980  1.7640112000
Li  4.4933672560  5.4537270620  5.2920336000
Li  2.0169808680  1.1644992660  5.2920336000
Li  6.9697549600  1.1644992660  5.2920336000
Gd  -0.0000007980  5.1884889140  5.2920336000
Gd  4.4933631960  2.5942444500  1.7640112000
8
scale = 1.45000
Li  -0.0000050315  2.4121850985  1.8270116000
Li  2.5648237275  6.8545996015  1.8270116000
Li  -2.5648351535  6.8545996015  1.8270116000
Li  4.6538446580  5.6485030285  5.4810348000
Li  2.0890158990  1.2060885255  5.4810348000
Li  7.2186747800  1.2060885255  5.4810348000
Gd  -0.0000008265  5.3737920895  5.4810348000
Gd  4.6538404530  2.6868960375  1.8270116000
8
scale = 1.50000
Li  -0.0000052050  2.4953638950  1.8900120000
Li  2.6532659250  7.0909651050  1.8900120000
Li  -2.6532777450  7.0909651050  1.8900120000
Li  4.8143220600  5.8432789950  5.6700360000
Li  2.1610509300  1.2476777850  5.6700360000
Li  7.4675946000  1.2476777850  5.6700360000
Gd  -0.0000008550  5.5590952650  5.6700360000
Gd  4.8143177100  2.7795476250  1.8900120000
8
scale = 1.55000
Li  -0.0000053785  2.5785426915  1.9530124000
Li  2.7417081225  7.3273306085  1.9530124000
Li  -2.7417203365  7.3273306085  1.9530124000
Li  4.9747994620  6.0380549615  5.8590372000
Li  2.2330859610  1.2892670445  5.8590372000
Li  7.7165144200  1.2892670445  5.8590372000
Gd  -0.0000008835  5.7443984405  5.8590372000
Gd  4.9747949670  2.8721992125  1.9530124000
8
scale = 1.60000
Li  -0.0000055520  2.6617214880  2.0160128000
Li  2.8301503200  7.5636961120  2.0160128000
Li  -2.8301629280  7.5636961120  2.0160128000
Li  5.1352768640  6.2328309280  6.0480384000
Li  2.3051209920  1.3308563040  6.0480384000
Li  7.9654342400  1.3308563040  6.0480384000
Gd  -0.0000009120  5.9297016160  6.0480384000
Gd  5.1352722240  2.9648508000  2.0160128000
8
scale = 1.65000
Li  -0.0000057255  2.7449002845  2.0790132000
Li  2.9185925175  7.8000616155  2.0790132000
Li  -2.9186055195  7.8000616155  2.0790132000
Li  5.2957542660  6.4276068945  6.2370396000
Li  2.3771560230  1.3724455635  6.2370396000
Li  8.2143540600  1.3724455635  6.2370396000
Gd  -0.0000009405  6.1150047915  6.2370396000
Gd  5.2957494810  3.0575023875  2.0790132000
8
scale = 1.70000
Li  -0.0000058990  2.8280790810  2.1420136000
Li  3.0070347150  8.0364271190  2.1420136000
Li  -3.0070481110  8.0364271190  2.1420136000
Li  5.4562316680  6.6223828610  6.4260408000
Li  2.4491910540  1.4140348230  6.4260408000
Li  8.4632738800  1.4140348230  6.4260408000
Gd  -0.0000009690  6.3003079670  6.4260408000
Gd  5.4562267380  3.1501539750  2.1420136000
8
scale = 1.75000
Li  -0.0000060725  2.9112578775  2.2050140000
Li  3.0954769125  8.2727926225  2.2050140000
Li  -3.0954907025  8.2727926225  2.2050140000
Li  5.6167090700  6.8171588275  6.6150420000
Li  2.5212260850  1.4556240825  6.6150420000
Li  8.7121937000  1.4556240825  6.6150420000
Gd  -0.0000009975  6.4856111425  6.6150420000
Gd  5.6167039950  3.2428055625  2.2050140000
8
scale = 1.80000
Li  -0.0000062460  2.9944366740  2.2680144000
Li  3.1839191100  8.5091581260  2.2680144000
Li  -3.1839332940  8.5091581260  2.2680144000
Li  5.7771864720  7.0119347940  6.8040432000
Li  2.5932611160  1.4972133420  6.8040432000
Li  8.9611135200  1.4972133420  6.8040432000
Gd  -0.0000010260  6.6709143180  6.8040432000
Gd  5.7771812520  3.3354571500  2.2680144000
8
scale = 1.85000
Li  -0.0000064195  3.0776154705  2.3310148000
Li  3.2723613075  8.7455236295  2.3310148000
Li  -3.2723758855  8.7455236295  2.3310148000
Li  5.9376638740  7.2067107605  6.9930444000
Li  2.6652961470  1.5388026015  6.9930444000
Li  9.2100333400  1.5388026015  6.9930444000
Gd  -0.0000010545  6.8562174935  6.9930444000
Gd  5.9376585090  3.4281087375  2.3310148000
8
scale = 1.90000
Li  -0.0000065930  3.1607942670  2.3940152000
Li  3.3608035050  8.9818891330  2.3940152000
Li  -3.3608184770  8.9818891330  2.3940152000
Li  6.0981412760  7.4014867270  7.1820456000
Li  2.7373311780  1.5803918610  7.1820456000
Li  9.4589531600  1.5803918610  7.1820456000
Gd  -0.0000010830  7.0415206690  7.1820456000
Gd  6.0981357660  3.5207603250  2.3940152000
8
scale = 1.95000
Li  -0.0000067665  3.2439730635  2.4570156000
Li  3.4492457025  9.2182546365  2.4570156000
Li  -3.4492610685  9.2182546365  2.4570156000
Li  6.2586186780  7.5962626935  7.3710468000
Li  2.8093662090  1.6219811205  7.3710468000
Li  9.7078729800  1.6219811205  7.3710468000
Gd  -0.0000011115  7.2268238445  7.3710468000
Gd  6.2586130230  3.6134119125  2.4570156000
8
scale = 2.00000
Li  -0.0000069400  3.3271518600  2.5200160000
Li  3.5376879000  9.4546201400  2.5200160000
Li  -3.5377036600  9.4546201400  2.5200160000
Li  6.4190960800  7.7910386600  7.5600480000
Li  2.8814012400  1.6635703800  7.5600480000
Li  9.9567928000  1.6635703800  7.5600480000
Gd  -0.0000011400  7.4121270200  7.5600480000
Gd  6.4190902800  3.7060635000  2.5200160000
8
scale = 2.05000
Li  -0.0000071135  3.4103306565  2.5830164000
Li  3.6261300975  9.6909856435  2.5830164000
Li  -3.6261462515  9.6909856435  2.5830164000
Li  6.5795734820  7.9858146265  7.7490492000
Li  2.9534362710  1.7051596395  7.7490492000
Li  10.2057126200  1.7051596395  7.7490492000
Gd  -0.0000011685  7.5974301955  7.7490492000
Gd  6.5795675370  3.7987150875  2.5830164000
8
scale = 2.10000
Li  -0.0000072870  3.4935094530  2.6460168000
Li  3.7145722950  9.9273511470  2.6460168000
Li  -3.7145888430  9.9273511470  2.6460168000
Li  6.7400508840  8.1805905930  7.9380504000
Li  3.0254713020  1.7467488990  7.9380504000
Li  10.4546324400  1.7467488990  7.9380504000
Gd  -0.0000011970  7.7827333710  7.9380504000
Gd  6.7400447940  3.8913666750  2.6460168000
8
scale = 2.15000
Li  -0.0000074605  3.5766882495  2.7090172000
Li  3.8030144925  10.1637166505  2.7090172000
Li  -3.8030314345  10.1637166505  2.7090172000
Li  6.9005282860  8.3753665595  8.1270516000
Li  3.0975063330  1.7883381585  8.1270516000
Li  10.7035522600  1.7883381585  8.1270516000
Gd  -0.0000012255  7.9680365465  8.1270516000
Gd  6.9005220510  3.9840182625  2.7090172000
8
scale = 2.20000
Li  -0.0000076340  3.6598670460  2.7720176000
Li  3.8914566900  10.4000821540  2.7720176000
Li  -3.8914740260  10.4000821540  2.7720176000
Li  7.0610056880  8.5701425260  8.3160528000
Li  3.1695413640  1.8299274180  8.3160528000
Li  10.9524720800  1.8299274180  8.3160528000
Gd  -0.0000012540  8.1533397220  8.3160528000
Gd  7.0609993080  4.0766698500  2.7720176000
8
scale = 2.25000
Li  -0.0000078075  3.7430458425  2.8350180000
Li  3.9798988875  10.6364476575  2.8350180000
Li  -3.9799166175  10.6364476575  2.8350180000
Li  7.2214830900  8.7649184925  8.5050540000
Li  3.2415763950  1.8715166775  8.5050540000
Li  11.2013919000  1.8715166775  8.5050540000
Gd  -0.0000012825  8.3386428975  8.5050540000
Gd  7.2214765650  4.1693214375  2.8350180000
8
scale = 2.30000
Li  -0.0000079810  3.8262246390  2.8980184000
Li  4.0683410850  10.8728131610  2.8980184000
Li  -4.0683592090  10.8728131610  2.8980184000
Li  7.3819604920  8.9596944590  8.6940552000
Li  3.3136114260  1.9131059370  8.6940552000
Li  11.4503117200  1.9131059370  8.6940552000
Gd  -0.0000013110  8.5239460730  8.6940552000
Gd  7.3819538220  4.2619730250  2.8980184000
8
scale = 2.35000
Li  -0.0000081545  3.9094034355  2.9610188000
Li  4.1567832825  11.1091786645  2.9610188000
Li  -4.1568018005  11.1091786645  2.9610188000
Li  7.5424378940  9.1544704255  8.8830564000
Li  3.3856464570  1.9546951965  8.8830564000
Li  11.6992315400  1.9546951965  8.8830564000
Gd  -0.0000013395  8.7092492485  8.8830564000
Gd  7.5424310790  4.3546246125  2.9610188000
8
scale = 2.40000
Li  -0.0000083280  3.9925822320  3.0240192000
Li  4.2452254800  11.3455441680  3.0240192000
Li  -4.2452443920  11.3455441680  3.0240192000
Li  7.7029152960  9.3492463920  9.0720576000
Li  3.4576814880  1.9962844560  9.0720576000
Li  11.9481513600  1.9962844560  9.0720576000
Gd  -0.0000013680  8.8945524240  9.0720576000
Gd  7.7029083360  4.4472762000  3.0240192000
8
scale = 2.45000
Li  -0.0000085015  4.0757610285  3.0870196000
Li  4.3336676775  11.5819096715  3.0870196000
Li  -4.3336869835  11.5819096715  3.0870196000
Li  7.8633926980  9.5440223585  9.2610588000
Li  3.5297165190  2.0378737155  9.2610588000
Li  12.1970711800  2.0378737155  9.2610588000
Gd  -0.0000013965  9.0798555995  9.2610588000
Gd  7.8633855930  4.5399277875  3.0870196000
