4
scale = 0.75000
Li  1.9683183975  0.6915796575  -0.4563614850
Li  0.2191299525  2.0747389725  -0.4563614850
Li  1.0937263575  1.3831620825  -2.2778017500
Hg  0.0000000000  0.0000000000  0.0000000000
4
scale = 0.80000
Li  2.0995396240  0.7376849680  -0.4867855840
Li  0.2337386160  2.2130549040  -0.4867855840
Li  1.1666414480  1.4753728880  -2.4296552000
Hg  0.0000000000  0.0000000000  0.0000000000
4
scale = 0.85000
Li  2.2307608505  0.7837902785  -0.5172096830
Li  0.2483472795  2.3513708355  -0.5172096830
Li  1.2395565385  1.5675836935  -2.5815086500
Hg  0.0000000000  0.0000000000  0.0000000000
4
scale = 0.90000
Li  2.3619820770  0.8298955890  -0.5476337820
Li  0.2629559430  2.4896867670  -0.5476337820
Li  1.3124716290  1.6597944990  -2.7333621000
Hg  0.0000000000  0.0000000000  0.0000000000
4
scale = 0.95000
Li  2.4932033035  0.8760008995  -0.5780578810
Li  0.2775646065  2.6280026985  -0.5780578810
Li  1.3853867195  1.7520053045  -2.8852155500
Hg  0.0000000000  0.0000000000  0.0000000000
4
scale = 1.00000
Li  2.6244245300  0.9221062100  -0.6084819800
Li  0.2921732700  2.7663186300  -0.6084819800
Li  1.4583018100  1.8442161100  -3.0370690000
Hg  0.0000000000  0.0000000000  0.0000000000
4
scale = 1.05000
Li  2.7556457565  0.9682115205  -0.6389060790
Li  0.3067819335  2.9046345615  -0.6389060790
Li  1.5312169005  1.9364269155  -3.1889224500
Hg  0.0000000000  0.0000000000  0.0000000000
4
scale = 1.10000
Li  2.8868669830  1.0143168310  -0.6693301780
Li  0.3213905970  3.0429504930  -0.6693301780
Li  1.6041319910  2.0286377210  -3.3407759000
Hg  0.0000000000  0.0000000000  0.0000000000
4
scale = 1.15000
Li  3.0180882095  1.0604221415  -0.6997542770
Li  0.3359992605  3.1812664245  -0.6997542770
Li  1.6770470815  2.1208485265  -3.4926293500
Hg  0.0000000000  0.0000000000  0.0000000000
4
scale = 1.20000
Li  3.1493094360  1.1065274520  -0.7301783760
Li  0.3506079240  3.3195823560  -0.7301783760
Li  1.7499621720  2.2130593320  -3.6444828000
Hg  0.0000000000  0.0000000000  0.0000000000
4
scale = 1.25000
Li  3.2805306625  1.1526327625  -0.7606024750
Li  0.3652165875  3.4578982875  -0.7606024750
Li  1.8228772625  2.3052701375  -3.7963362500
Hg  0.0000000000  0.0000000000  0.0000000000
4
scale = 1.30000
Li  3.4117518890  1.1987380730  -0.7910265740
Li  0.3798252510  3.5962142190  -0.7910265740
Li  1.8957923530  2.3974809430  -3.9481897000
Hg  0.0000000000  0.0000000000  0.0000000000
4
scale = 1.35000
Li  3.5429731155  1.2448433835  -0.8214506730
Li  0.3944339145  3.7345301505  -0.8214506730
Li  1.9687074435  2.4896917485  -4.1000431500
Hg  0.0000000000  0.0000000000  0.0000000000
4
scale = 1.40000
Li  3.6741943420  1.2909486940  -0.8518747720
Li  0.4090425780  3.8728460820  -0.8518747720
Li  2.0416225340  2.5819025540  -4.2518966000
Hg  0.0000000000  0.0000000000  0.0000000000
4
scale = 1.45000
Li  3.8054155685  1.3370540045  -0.8822988710
Li  0.4236512415  4.0111620135  -0.8822988710
Li  2.1145376245  2.6741133595  -4.4037500500
Hg  0.0000000000  0.0000000000  0.0000000000
4
scale = 1.50000
Li  3.9366367950  1.3831593150  -0.9127229700
Li  0.4382599050  4.1494779450  -0.9127229700
Li  2.1874527150  2.7663241650  -4.5556035000
Hg  0.0000000000  0.0000000000  0.0000000000
4
scale = 1.55000
Li  4.0678580215  1.4292646255  -0.9431470690
Li  0.4528685685  4.2877938765  -0.9431470690
Li  2.2603678055  2.8585349705  -4.7074569500
Hg  0.0000000000  0.0000000000  0.0000000000
4
scale = 1.60000
Li  4.1990792480  1.4753699360  -0.9735711680
Li  0.4674772320  4.4261098080  -0.9735711680
Li  2.3332828960  2.9507457760  -4.8593104000
Hg  0.0000000000  0.0000000000  0.0000000000
4
scale = 1.65000
Li  4.3303004745  1.5214752465  -1.0039952670
Li  0.4820858955  4.5644257395  -1.0039952670
Li  2.4061979865  3.0429565815  -5.0111638500
Hg  0.0000000000  0.0000000000  0.0000000000
4
scale = 1.70000
Li  4.4615217010  1.5675805570  -1.0344193660
Li  0.4966945590  4.7027416710  -1.0344193660
Li  2.4791130770  3.1351673870  -5.1630173000
Hg  0.0000000000  0.0000000000  0.0000000000
4
scale = 1.75000
Li  4.5927429275  1.6136858675  -1.0648434650
Li  0.5113032225  4.8410576025  -1.0648434650
Li  2.5520281675  3.2273781925  -5.3148707500
Hg  0.0000000000  0.0000000000  0.0000000000
4
scale = 1.80000
Li  4.7239641540  1.6597911780  -1.0952675640
Li  0.5259118860  4.9793735340  -1.0952675640
Li  2.6249432580  3.3195889980  -5.4667242000
Hg  0.0000000000  0.0000000000  0.0000000000
4
scale = 1.85000
Li  4.8551853805  1.7058964885  -1.1256916630
Li  0.5405205495  5.1176894655  -1.1256916630
Li  2.6978583485  3.4117998035  -5.6185776500
Hg  0.0000000000  0.0000000000  0.0000000000
4
scale = 1.90000
Li  4.9864066070  1.7520017990  -1.1561157620
Li  0.5551292130  5.2560053970  -1.1561157620
Li  2.7707734390  3.5040106090  -5.7704311000
Hg  0.0000000000  0.0000000000  0.0000000000
4
scale = 1.95000
Li  5.1176278335  1.7981071095  -1.1865398610
Li  0.5697378765  5.3943213285  -1.1865398610
Li  2.8436885295  3.5962214145  -5.9222845500
Hg  0.0000000000  0.0000000000  0.0000000000
4
scale = 2.00000
Li  5.2488490600  1.8442124200  -1.2169639600
Li  0.5843465400  5.5326372600  -1.2169639600
Li  2.9166036200  3.6884322200  -6.0741380000
Hg  0.0000000000  0.0000000000  0.0000000000
4
scale = 2.05000
Li  5.3800702865  1.8903177305  -1.2473880590
Li  0.5989552035  5.6709531915  -1.2473880590
Li  2.9895187105  3.7806430255  -6.2259914500
Hg  0.0000000000  0.0000000000  0.0000000000
4
scale = 2.10000
Li  5.5112915130  1.9364230410  -1.2778121580
Li  0.6135638670  5.8092691230  -1.2778121580
Li  3.0624338010  3.8728538310  -6.3778449000
Hg  0.0000000000  0.0000000000  0.0000000000
4
scale = 2.15000
Li  5.6425127395  1.9825283515  -1.3082362570
Li  0.6281725305  5.9475850545  -1.3082362570
Li  3.1353488915  3.9650646365  -6.5296983500
Hg  0.0000000000  0.0000000000  0.0000000000
4
scale = 2.20000
Li  5.7737339660  2.0286336620  -1.3386603560
Li  0.6427811940  6.0859009860  -1.3386603560
Li  3.2082639820  4.0572754420  -6.6815518000
Hg  0.0000000000  0.0000000000  0.0000000000
4
scale = 2.25000
Li  5.9049551925  2.0747389725  -1.3690844550
Li  0.6573898575  6.2242169175  -1.3690844550
Li  3.2811790725  4.1494862475  -6.8334052500
Hg  0.0000000000  0.0000000000  0.0000000000
4
scale = 2.30000
Li  6.0361764190  2.1208442830  -1.3995085540
Li  0.6719985210  6.3625328490  -1.3995085540
Li  3.3540941630  4.2416970530  -6.9852587000
Hg  0.0000000000  0.0000000000  0.0000000000
4
scale = 2.35000
Li  6.1673976455  2.1669495935  -1.4299326530
Li  0.6866071845  6.5008487805  -1.4299326530
Li  3.4270092535  4.3339078585  -7.1371121500
Hg  0.0000000000  0.0000000000  0.0000000000
4
scale = 2.40000
Li  6.2986188720  2.2130549040  -1.4603567520
Li  0.7012158480  6.6391647120  -1.4603567520
Li  3.4999243440  4.4261186640  -7.2889656000
Hg  0.0000000000  0.0000000000  0.0000000000
4
scale = 2.45000
Li  6.4298400985  2.2591602145  -1.4907808510
Li  0.7158245115  6.7774806435  -1.4907808510
Li  3.5728394345  4.5183294695  -7.4408190500
Hg  0.0000000000  0.0000000000  0.0000000000
