5
scale = 0.75000
Li  2.6611527075  1.7616354225  5.6893267650
Li  1.8062280075  1.1956905900  3.8615676975
Li  0.0000000000  0.0000000000  0.0000000000
In  0.9242733750  0.6118524150  1.9760208450
In  3.5431073400  2.3454735975  7.5748736100
5
scale = 0.80000
Li  2.8385628880  1.8790777840  6.0686152160
Li  1.9266432080  1.2754032960  4.1190055440
Li  0.0000000000  0.0000000000  0.0000000000
In  0.9858916000  0.6526425760  2.1077555680
In  3.7793144960  2.5018385040  8.0798651840
5
scale = 0.85000
Li  3.0159730685  1.9965201455  6.4479036670
Li  2.0470584085  1.3551160020  4.3764433905
Li  0.0000000000  0.0000000000  0.0000000000
In  1.0475098250  0.6934327370  2.2394902910
In  4.0155216520  2.6582034105  8.5848567580
5
scale = 0.90000
Li  3.1933832490  2.1139625070  6.8271921180
Li  2.1674736090  1.4348287080  4.6338812370
Li  0.0000000000  0.0000000000  0.0000000000
In  1.1091280500  0.7342228980  2.3712250140
In  4.2517288080  2.8145683170  9.0898483320
5
scale = 0.95000
Li  3.3707934295  2.2314048685  7.2064805690
Li  2.2878888095  1.5145414140  4.8913190835
Li  0.0000000000  0.0000000000  0.0000000000
In  1.1707462750  0.7750130590  2.5029597370
In  4.4879359640  2.9709332235  9.5948399060
5
scale = 1.00000
Li  3.5482036100  2.3488472300  7.5857690200
Li  2.4083040100  1.5942541200  5.1487569300
Li  0.0000000000  0.0000000000  0.0000000000
In  1.2323645000  0.8158032200  2.6346944600
In  4.7241431200  3.1272981300  10.0998314800
5
scale = 1.05000
Li  3.7256137905  2.4662895915  7.9650574710
Li  2.5287192105  1.6739668260  5.4061947765
Li  0.0000000000  0.0000000000  0.0000000000
In  1.2939827250  0.8565933810  2.7664291830
In  4.9603502760  3.2836630365  10.6048230540
5
scale = 1.10000
Li  3.9030239710  2.5837319530  8.3443459220
Li  2.6491344110  1.7536795320  5.6636326230
Li  0.0000000000  0.0000000000  0.0000000000
In  1.3556009500  0.8973835420  2.8981639060
In  5.1965574320  3.4400279430  11.1098146280
5
scale = 1.15000
Li  4.0804341515  2.7011743145  8.7236343730
Li  2.7695496115  1.8333922380  5.9210704695
Li  0.0000000000  0.0000000000  0.0000000000
In  1.4172191750  0.9381737030  3.0298986290
In  5.4327645880  3.5963928495  11.6148062020
5
scale = 1.20000
Li  4.2578443320  2.8186166760  9.1029228240
Li  2.8899648120  1.9131049440  6.1785083160
Li  0.0000000000  0.0000000000  0.0000000000
In  1.4788374000  0.9789638640  3.1616333520
In  5.6689717440  3.7527577560  12.1197977760
5
scale = 1.25000
Li  4.4352545125  2.9360590375  9.4822112750
Li  3.0103800125  1.9928176500  6.4359461625
Li  0.0000000000  0.0000000000  0.0000000000
In  1.5404556250  1.0197540250  3.2933680750
In  5.9051789000  3.9091226625  12.6247893500
5
scale = 1.30000
Li  4.6126646930  3.0535013990  9.8614997260
Li  3.1307952130  2.0725303560  6.6933840090
Li  0.0000000000  0.0000000000  0.0000000000
In  1.6020738500  1.0605441860  3.4251027980
In  6.1413860560  4.0654875690  13.1297809240
5
scale = 1.35000
Li  4.7900748735  3.1709437605  10.2407881770
Li  3.2512104135  2.1522430620  6.9508218555
Li  0.0000000000  0.0000000000  0.0000000000
In  1.6636920750  1.1013343470  3.5568375210
In  6.3775932120  4.2218524755  13.6347724980
5
scale = 1.40000
Li  4.9674850540  3.2883861220  10.6200766280
Li  3.3716256140  2.2319557680  7.2082597020
Li  0.0000000000  0.0000000000  0.0000000000
In  1.7253103000  1.1421245080  3.6885722440
In  6.6138003680  4.3782173820  14.1397640720
5
scale = 1.45000
Li  5.1448952345  3.4058284835  10.9993650790
Li  3.4920408145  2.3116684740  7.4656975485
Li  0.0000000000  0.0000000000  0.0000000000
In  1.7869285250  1.1829146690  3.8203069670
In  6.8500075240  4.5345822885  14.6447556460
5
scale = 1.50000
Li  5.3223054150  3.5232708450  11.3786535300
Li  3.6124560150  2.3913811800  7.7231353950
Li  0.0000000000  0.0000000000  0.0000000000
In  1.8485467500  1.2237048300  3.9520416900
In  7.0862146800  4.6909471950  15.1497472200
5
scale = 1.55000
Li  5.4997155955  3.6407132065  11.7579419810
Li  3.7328712155  2.4710938860  7.9805732415
Li  0.0000000000  0.0000000000  0.0000000000
In  1.9101649750  1.2644949910  4.0837764130
In  7.3224218360  4.8473121015  15.6547387940
5
scale = 1.60000
Li  5.6771257760  3.7581555680  12.1372304320
Li  3.8532864160  2.5508065920  8.2380110880
Li  0.0000000000  0.0000000000  0.0000000000
In  1.9717832000  1.3052851520  4.2155111360
In  7.5586289920  5.0036770080  16.1597303680
5
scale = 1.65000
Li  5.8545359565  3.8755979295  12.5165188830
Li  3.9737016165  2.6305192980  8.4954489345
Li  0.0000000000  0.0000000000  0.0000000000
In  2.0334014250  1.3460753130  4.3472458590
In  7.7948361480  5.1600419145  16.6647219420
5
scale = 1.70000
Li  6.0319461370  3.9930402910  12.8958073340
Li  4.0941168170  2.7102320040  8.7528867810
Li  0.0000000000  0.0000000000  0.0000000000
In  2.0950196500  1.3868654740  4.4789805820
In  8.0310433040  5.3164068210  17.1697135160
5
scale = 1.75000
Li  6.2093563175  4.1104826525  13.2750957850
Li  4.2145320175  2.7899447100  9.0103246275
Li  0.0000000000  0.0000000000  0.0000000000
In  2.1566378750  1.4276556350  4.6107153050
In  8.2672504600  5.4727717275  17.6747050900
5
scale = 1.80000
Li  6.3867664980  4.2279250140  13.6543842360
Li  4.3349472180  2.8696574160  9.2677624740
Li  0.0000000000  0.0000000000  0.0000000000
In  2.2182561000  1.4684457960  4.7424500280
In  8.5034576160  5.6291366340  18.1796966640
5
scale = 1.85000
Li  6.5641766785  4.3453673755  14.0336726870
Li  4.4553624185  2.9493701220  9.5252003205
Li  0.0000000000  0.0000000000  0.0000000000
In  2.2798743250  1.5092359570  4.8741847510
In  8.7396647720  5.7855015405  18.6846882380
5
scale = 1.90000
Li  6.7415868590  4.4628097370  14.4129611380
Li  4.5757776190  3.0290828280  9.7826381670
Li  0.0000000000  0.0000000000  0.0000000000
In  2.3414925500  1.5500261180  5.0059194740
In  8.9758719280  5.9418664470  19.1896798120
5
scale = 1.95000
Li  6.9189970395  4.5802520985  14.7922495890
Li  4.6961928195  3.1087955340  10.0400760135
Li  0.0000000000  0.0000000000  0.0000000000
In  2.4031107750  1.5908162790  5.1376541970
In  9.2120790840  6.0982313535  19.6946713860
5
scale = 2.00000
Li  7.0964072200  4.6976944600  15.1715380400
Li  4.8166080200  3.1885082400  10.2975138600
Li  0.0000000000  0.0000000000  0.0000000000
In  2.4647290000  1.6316064400  5.2693889200
In  9.4482862400  6.2545962600  20.1996629600
5
scale = 2.05000
Li  7.2738174005  4.8151368215  15.5508264910
Li  4.9370232205  3.2682209460  10.5549517065
Li  0.0000000000  0.0000000000  0.0000000000
In  2.5263472250  1.6723966010  5.4011236430
In  9.6844933960  6.4109611665  20.7046545340
5
scale = 2.10000
Li  7.4512275810  4.9325791830  15.9301149420
Li  5.0574384210  3.3479336520  10.8123895530
Li  0.0000000000  0.0000000000  0.0000000000
In  2.5879654500  1.7131867620  5.5328583660
In  9.9207005520  6.5673260730  21.2096461080
5
scale = 2.15000
Li  7.6286377615  5.0500215445  16.3094033930
Li  5.1778536215  3.4276463580  11.0698273995
Li  0.0000000000  0.0000000000  0.0000000000
In  2.6495836750  1.7539769230  5.6645930890
In  10.1569077080  6.7236909795  21.7146376820
5
scale = 2.20000
Li  7.8060479420  5.1674639060  16.6886918440
Li  5.2982688220  3.5073590640  11.3272652460
Li  0.0000000000  0.0000000000  0.0000000000
In  2.7112019000  1.7947670840  5.7963278120
In  10.3931148640  6.8800558860  22.2196292560
5
scale = 2.25000
Li  7.9834581225  5.2849062675  17.0679802950
Li  5.4186840225  3.5870717700  11.5847030925
Li  0.0000000000  0.0000000000  0.0000000000
In  2.7728201250  1.8355572450  5.9280625350
In  10.6293220200  7.0364207925  22.7246208300
5
scale = 2.30000
Li  8.1608683030  5.4023486290  17.4472687460
Li  5.5390992230  3.6667844760  11.8421409390
Li  0.0000000000  0.0000000000  0.0000000000
In  2.8344383500  1.8763474060  6.0597972580
In  10.8655291760  7.1927856990  23.2296124040
5
scale = 2.35000
Li  8.3382784835  5.5197909905  17.8265571970
Li  5.6595144235  3.7464971820  12.0995787855
Li  0.0000000000  0.0000000000  0.0000000000
In  2.8960565750  1.9171375670  6.1915319810
In  11.1017363320  7.3491506055  23.7346039780
5
scale = 2.40000
Li  8.5156886640  5.6372333520  18.2058456480
Li  5.7799296240  3.8262098880  12.3570166320
Li  0.0000000000  0.0000000000  0.0000000000
In  2.9576748000  1.9579277280  6.3232667040
In  11.3379434880  7.5055155120  24.2395955520
5
scale = 2.45000
Li  8.6930988445  5.7546757135  18.5851340990
Li  5.9003448245  3.9059225940  12.6144544785
Li  0.0000000000  0.0000000000  0.0000000000
In  3.0192930250  1.9987178890  6.4550014270
In  11.5741506440  7.6618804185  24.7445871260
