4
scale = 0.75000
Li  1.1399845650  0.8060908200  1.9745111925
Li  3.4199537025  2.4182724525  5.9235335625
Li  2.2799691300  1.6121816325  3.9490223775
La  0.0000000000  0.0000000000  0.0000000000
4
scale = 0.80000
Li  1.2159835360  0.8598302080  2.1061452720
Li  3.6479506160  2.5794906160  6.3184358000
Li  2.4319670720  1.7196604080  4.2122905360
La  0.0000000000  0.0000000000  0.0000000000
4
scale = 0.85000
Li  1.2919825070  0.9135695960  2.2377793515
Li  3.8759475295  2.7407087795  6.7133380375
Li  2.5839650140  1.8271391835  4.4755586945
La  0.0000000000  0.0000000000  0.0000000000
4
scale = 0.90000
Li  1.3679814780  0.9673089840  2.3694134310
Li  4.1039444430  2.9019269430  7.1082402750
Li  2.7359629560  1.9346179590  4.7388268530
La  0.0000000000  0.0000000000  0.0000000000
4
scale = 0.95000
Li  1.4439804490  1.0210483720  2.5010475105
Li  4.3319413565  3.0631451065  7.5031425125
Li  2.8879608980  2.0420967345  5.0020950115
La  0.0000000000  0.0000000000  0.0000000000
4
scale = 1.00000
Li  1.5199794200  1.0747877600  2.6326815900
Li  4.5599382700  3.2243632700  7.8980447500
Li  3.0399588400  2.1495755100  5.2653631700
La  0.0000000000  0.0000000000  0.0000000000
4
scale = 1.05000
Li  1.5959783910  1.1285271480  2.7643156695
Li  4.7879351835  3.3855814335  8.2929469875
Li  3.1919567820  2.2570542855  5.5286313285
La  0.0000000000  0.0000000000  0.0000000000
4
scale = 1.10000
Li  1.6719773620  1.1822665360  2.8959497490
Li  5.0159320970  3.5467995970  8.6878492250
Li  3.3439547240  2.3645330610  5.7918994870
La  0.0000000000  0.0000000000  0.0000000000
4
scale = 1.15000
Li  1.7479763330  1.2360059240  3.0275838285
Li  5.2439290105  3.7080177605  9.0827514625
Li  3.4959526660  2.4720118365  6.0551676455
La  0.0000000000  0.0000000000  0.0000000000
4
scale = 1.20000
Li  1.8239753040  1.2897453120  3.1592179080
Li  5.4719259240  3.8692359240  9.4776537000
Li  3.6479506080  2.5794906120  6.3184358040
La  0.0000000000  0.0000000000  0.0000000000
4
scale = 1.25000
Li  1.8999742750  1.3434847000  3.2908519875
Li  5.6999228375  4.0304540875  9.8725559375
Li  3.7999485500  2.6869693875  6.5817039625
La  0.0000000000  0.0000000000  0.0000000000
4
scale = 1.30000
Li  1.9759732460  1.3972240880  3.4224860670
Li  5.9279197510  4.1916722510  10.2674581750
Li  3.9519464920  2.7944481630  6.8449721210
La  0.0000000000  0.0000000000  0.0000000000
4
scale = 1.35000
Li  2.0519722170  1.4509634760  3.5541201465
Li  6.1559166645  4.3528904145  10.6623604125
Li  4.1039444340  2.9019269385  7.1082402795
La  0.0000000000  0.0000000000  0.0000000000
4
scale = 1.40000
Li  2.1279711880  1.5047028640  3.6857542260
Li  6.3839135780  4.5141085780  11.0572626500
Li  4.2559423760  3.0094057140  7.3715084380
La  0.0000000000  0.0000000000  0.0000000000
4
scale = 1.45000
Li  2.2039701590  1.5584422520  3.8173883055
Li  6.6119104915  4.6753267415  11.4521648875
Li  4.4079403180  3.1168844895  7.6347765965
La  0.0000000000  0.0000000000  0.0000000000
4
scale = 1.50000
Li  2.2799691300  1.6121816400  3.9490223850
Li  6.8399074050  4.8365449050  11.8470671250
Li  4.5599382600  3.2243632650  7.8980447550
La  0.0000000000  0.0000000000  0.0000000000
4
scale = 1.55000
Li  2.3559681010  1.6659210280  4.0806564645
Li  7.0679043185  4.9977630685  12.2419693625
Li  4.7119362020  3.3318420405  8.1613129135
La  0.0000000000  0.0000000000  0.0000000000
4
scale = 1.60000
Li  2.4319670720  1.7196604160  4.2122905440
Li  7.2959012320  5.1589812320  12.6368716000
Li  4.8639341440  3.4393208160  8.4245810720
La  0.0000000000  0.0000000000  0.0000000000
4
scale = 1.65000
Li  2.5079660430  1.7733998040  4.3439246235
Li  7.5238981455  5.3201993955  13.0317738375
Li  5.0159320860  3.5467995915  8.6878492305
La  0.0000000000  0.0000000000  0.0000000000
4
scale = 1.70000
Li  2.5839650140  1.8271391920  4.4755587030
Li  7.7518950590  5.4814175590  13.4266760750
Li  5.1679300280  3.6542783670  8.9511173890
La  0.0000000000  0.0000000000  0.0000000000
4
scale = 1.75000
Li  2.6599639850  1.8808785800  4.6071927825
Li  7.9798919725  5.6426357225  13.8215783125
Li  5.3199279700  3.7617571425  9.2143855475
La  0.0000000000  0.0000000000  0.0000000000
4
scale = 1.80000
Li  2.7359629560  1.9346179680  4.7388268620
Li  8.2078888860  5.8038538860  14.2164805500
Li  5.4719259120  3.8692359180  9.4776537060
La  0.0000000000  0.0000000000  0.0000000000
4
scale = 1.85000
Li  2.8119619270  1.9883573560  4.8704609415
Li  8.4358857995  5.9650720495  14.6113827875
Li  5.6239238540  3.9767146935  9.7409218645
La  0.0000000000  0.0000000000  0.0000000000
4
scale = 1.90000
Li  2.8879608980  2.0420967440  5.0020950210
Li  8.6638827130  6.1262902130  15.0062850250
Li  5.7759217960  4.0841934690  10.0041900230
La  0.0000000000  0.0000000000  0.0000000000
4
scale = 1.95000
Li  2.9639598690  2.0958361320  5.1337291005
Li  8.8918796265  6.2875083765  15.4011872625
Li  5.9279197380  4.1916722445  10.2674581815
La  0.0000000000  0.0000000000  0.0000000000
4
scale = 2.00000
Li  3.0399588400  2.1495755200  5.2653631800
Li  9.1198765400  6.4487265400  15.7960895000
Li  6.0799176800  4.2991510200  10.5307263400
La  0.0000000000  0.0000000000  0.0000000000
4
scale = 2.05000
Li  3.1159578110  2.2033149080  5.3969972595
Li  9.3478734535  6.6099447035  16.1909917375
Li  6.2319156220  4.4066297955  10.7939944985
La  0.0000000000  0.0000000000  0.0000000000
4
scale = 2.10000
Li  3.1919567820  2.2570542960  5.5286313390
Li  9.5758703670  6.7711628670  16.5858939750
Li  6.3839135640  4.5141085710  11.0572626570
La  0.0000000000  0.0000000000  0.0000000000
4
scale = 2.15000
Li  3.2679557530  2.3107936840  5.6602654185
Li  9.8038672805  6.9323810305  16.9807962125
Li  6.5359115060  4.6215873465  11.3205308155
La  0.0000000000  0.0000000000  0.0000000000
4
scale = 2.20000
Li  3.3439547240  2.3645330720  5.7918994980
Li  10.0318641940  7.0935991940  17.3756984500
Li  6.6879094480  4.7290661220  11.5837989740
La  0.0000000000  0.0000000000  0.0000000000
4
scale = 2.25000
Li  3.4199536950  2.4182724600  5.9235335775
Li  10.2598611075  7.2548173575  17.7706006875
Li  6.8399073900  4.8365448975  11.8470671325
La  0.0000000000  0.0000000000  0.0000000000
4
scale = 2.30000
Li  3.4959526660  2.4720118480  6.0551676570
Li  10.4878580210  7.4160355210  18.1655029250
Li  6.9919053320  4.9440236730  12.1103352910
La  0.0000000000  0.0000000000  0.0000000000
4
scale = 2.35000
Li  3.5719516370  2.5257512360  6.1868017365
Li  10.7158549345  7.5772536845  18.5604051625
Li  7.1439032740  5.0515024485  12.3736034495
La  0.0000000000  0.0000000000  0.0000000000
4
scale = 2.40000
Li  3.6479506080  2.5794906240  6.3184358160
Li  10.9438518480  7.7384718480  18.9553074000
Li  7.2959012160  5.1589812240  12.6368716080
La  0.0000000000  0.0000000000  0.0000000000
4
scale = 2.45000
Li  3.7239495790  2.6332300120  6.4500698955
Li  11.1718487615  7.8996900115  19.3502096375
Li  7.4478991580  5.2664599995  12.9001397665
La  0.0000000000  0.0000000000  0.0000000000
