8
scale = 0.75000
Li  3.7077568800  0.6376127775  2.8145137500
Li  1.1043825300  0.6376127775  2.8145137500
Li  2.4060700125  2.8922012775  2.8145137500
Li  -1.3016891025  3.5298182175  0.9381712500
Li  1.3016852475  3.5298182175  0.9381712500
Li  -0.0000022350  1.2752297175  0.9381712500
Lu  2.4060674025  1.3891436625  0.9381712500
Lu  0.0000003825  2.7782873250  2.8145137500
8
scale = 0.80000
Li  3.9549406720  0.6801202960  3.0021480000
Li  1.1780080320  0.6801202960  3.0021480000
Li  2.5664746800  3.0850146960  3.0021480000
Li  -1.3884683760  3.7651394320  1.0007160000
Li  1.3884642640  3.7651394320  1.0007160000
Li  -0.0000023840  1.3602450320  1.0007160000
Lu  2.5664718960  1.4817532400  1.0007160000
Lu  0.0000004080  2.9635064800  3.0021480000
8
scale = 0.85000
Li  4.2021244640  0.7226278145  3.1897822500
Li  1.2516335340  0.7226278145  3.1897822500
Li  2.7268793475  3.2778281145  3.1897822500
Li  -1.4752476495  4.0004606465  1.0632607500
Li  1.4752432805  4.0004606465  1.0632607500
Li  -0.0000025330  1.4452603465  1.0632607500
Lu  2.7268763895  1.5743628175  1.0632607500
Lu  0.0000004335  3.1487256350  3.1897822500
8
scale = 0.90000
Li  4.4493082560  0.7651353330  3.3774165000
Li  1.3252590360  0.7651353330  3.3774165000
Li  2.8872840150  3.4706415330  3.3774165000
Li  -1.5620269230  4.2357818610  1.1258055000
Li  1.5620222970  4.2357818610  1.1258055000
Li  -0.0000026820  1.5302756610  1.1258055000
Lu  2.8872808830  1.6669723950  1.1258055000
Lu  0.0000004590  3.3339447900  3.3774165000
8
scale = 0.95000
Li  4.6964920480  0.8076428515  3.5650507500
Li  1.3988845380  0.8076428515  3.5650507500
Li  3.0476886825  3.6634549515  3.5650507500
Li  -1.6488061965  4.4711030755  1.1883502500
Li  1.6488013135  4.4711030755  1.1883502500
Li  -0.0000028310  1.6152909755  1.1883502500
Lu  3.0476853765  1.7595819725  1.1883502500
Lu  0.0000004845  3.5191639450  3.5650507500
8
scale = 1.00000
Li  4.9436758400  0.8501503700  3.7526850000
Li  1.4725100400  0.8501503700  3.7526850000
Li  3.2080933500  3.8562683700  3.7526850000
Li  -1.7355854700  4.7064242900  1.2508950000
Li  1.7355803300  4.7064242900  1.2508950000
Li  -0.0000029800  1.7003062900  1.2508950000
Lu  3.2080898700  1.8521915500  1.2508950000
Lu  0.0000005100  3.7043831000  3.7526850000
8
scale = 1.05000
Li  5.1908596320  0.8926578885  3.9403192500
Li  1.5461355420  0.8926578885  3.9403192500
Li  3.3684980175  4.0490817885  3.9403192500
Li  -1.8223647435  4.9417455045  1.3134397500
Li  1.8223593465  4.9417455045  1.3134397500
Li  -0.0000031290  1.7853216045  1.3134397500
Lu  3.3684943635  1.9448011275  1.3134397500
Lu  0.0000005355  3.8896022550  3.9403192500
8
scale = 1.10000
Li  5.4380434240  0.9351654070  4.1279535000
Li  1.6197610440  0.9351654070  4.1279535000
Li  3.5289026850  4.2418952070  4.1279535000
Li  -1.9091440170  5.1770667190  1.3759845000
Li  1.9091383630  5.1770667190  1.3759845000
Li  -0.0000032780  1.8703369190  1.3759845000
Lu  3.5288988570  2.0374107050  1.3759845000
Lu  0.0000005610  4.0748214100  4.1279535000
8
scale = 1.15000
Li  5.6852272160  0.9776729255  4.3155877500
Li  1.6933865460  0.9776729255  4.3155877500
Li  3.6893073525  4.4347086255  4.3155877500
Li  -1.9959232905  5.4123879335  1.4385292500
Li  1.9959173795  5.4123879335  1.4385292500
Li  -0.0000034270  1.9553522335  1.4385292500
Lu  3.6893033505  2.1300202825  1.4385292500
Lu  0.0000005865  4.2600405650  4.3155877500
8
scale = 1.20000
Li  5.9324110080  1.0201804440  4.5032220000
Li  1.7670120480  1.0201804440  4.5032220000
Li  3.8497120200  4.6275220440  4.5032220000
Li  -2.0827025640  5.6477091480  1.5010740000
Li  2.0826963960  5.6477091480  1.5010740000
Li  -0.0000035760  2.0403675480  1.5010740000
Lu  3.8497078440  2.2226298600  1.5010740000
Lu  0.0000006120  4.4452597200  4.5032220000
8
scale = 1.25000
Li  6.1795948000  1.0626879625  4.6908562500
Li  1.8406375500  1.0626879625  4.6908562500
Li  4.0101166875  4.8203354625  4.6908562500
Li  -2.1694818375  5.8830303625  1.5636187500
Li  2.1694754125  5.8830303625  1.5636187500
Li  -0.0000037250  2.1253828625  1.5636187500
Lu  4.0101123375  2.3152394375  1.5636187500
Lu  0.0000006375  4.6304788750  4.6908562500
8
scale = 1.30000
Li  6.4267785920  1.1051954810  4.8784905000
Li  1.9142630520  1.1051954810  4.8784905000
Li  4.1705213550  5.0131488810  4.8784905000
Li  -2.2562611110  6.1183515770  1.6261635000
Li  2.2562544290  6.1183515770  1.6261635000
Li  -0.0000038740  2.2103981770  1.6261635000
Lu  4.1705168310  2.4078490150  1.6261635000
Lu  0.0000006630  4.8156980300  4.8784905000
8
scale = 1.35000
Li  6.6739623840  1.1477029995  5.0661247500
Li  1.9878885540  1.1477029995  5.0661247500
Li  4.3309260225  5.2059622995  5.0661247500
Li  -2.3430403845  6.3536727915  1.6887082500
Li  2.3430334455  6.3536727915  1.6887082500
Li  -0.0000040230  2.2954134915  1.6887082500
Lu  4.3309213245  2.5004585925  1.6887082500
Lu  0.0000006885  5.0009171850  5.0661247500
8
scale = 1.40000
Li  6.9211461760  1.1902105180  5.2537590000
Li  2.0615140560  1.1902105180  5.2537590000
Li  4.4913306900  5.3987757180  5.2537590000
Li  -2.4298196580  6.5889940060  1.7512530000
Li  2.4298124620  6.5889940060  1.7512530000
Li  -0.0000041720  2.3804288060  1.7512530000
Lu  4.4913258180  2.5930681700  1.7512530000
Lu  0.0000007140  5.1861363400  5.2537590000
8
scale = 1.45000
Li  7.1683299680  1.2327180365  5.4413932500
Li  2.1351395580  1.2327180365  5.4413932500
Li  4.6517353575  5.5915891365  5.4413932500
Li  -2.5165989315  6.8243152205  1.8137977500
Li  2.5165914785  6.8243152205  1.8137977500
Li  -0.0000043210  2.4654441205  1.8137977500
Lu  4.6517303115  2.6856777475  1.8137977500
Lu  0.0000007395  5.3713554950  5.4413932500
8
scale = 1.50000
Li  7.4155137600  1.2752255550  5.6290275000
Li  2.2087650600  1.2752255550  5.6290275000
Li  4.8121400250  5.7844025550  5.6290275000
Li  -2.6033782050  7.0596364350  1.8763425000
Li  2.6033704950  7.0596364350  1.8763425000
Li  -0.0000044700  2.5504594350  1.8763425000
Lu  4.8121348050  2.7782873250  1.8763425000
Lu  0.0000007650  5.5565746500  5.6290275000
8
scale = 1.55000
Li  7.6626975520  1.3177330735  5.8166617500
Li  2.2823905620  1.3177330735  5.8166617500
Li  4.9725446925  5.9772159735  5.8166617500
Li  -2.6901574785  7.2949576495  1.9388872500
Li  2.6901495115  7.2949576495  1.9388872500
Li  -0.0000046190  2.6354747495  1.9388872500
Lu  4.9725392985  2.8708969025  1.9388872500
Lu  0.0000007905  5.7417938050  5.8166617500
8
scale = 1.60000
Li  7.9098813440  1.3602405920  6.0042960000
Li  2.3560160640  1.3602405920  6.0042960000
Li  5.1329493600  6.1700293920  6.0042960000
Li  -2.7769367520  7.5302788640  2.0014320000
Li  2.7769285280  7.5302788640  2.0014320000
Li  -0.0000047680  2.7204900640  2.0014320000
Lu  5.1329437920  2.9635064800  2.0014320000
Lu  0.0000008160  5.9270129600  6.0042960000
8
scale = 1.65000
Li  8.1570651360  1.4027481105  6.1919302500
Li  2.4296415660  1.4027481105  6.1919302500
Li  5.2933540275  6.3628428105  6.1919302500
Li  -2.8637160255  7.7656000785  2.0639767500
Li  2.8637075445  7.7656000785  2.0639767500
Li  -0.0000049170  2.8055053785  2.0639767500
Lu  5.2933482855  3.0561160575  2.0639767500
Lu  0.0000008415  6.1122321150  6.1919302500
8
scale = 1.70000
Li  8.4042489280  1.4452556290  6.3795645000
Li  2.5032670680  1.4452556290  6.3795645000
Li  5.4537586950  6.5556562290  6.3795645000
Li  -2.9504952990  8.0009212930  2.1265215000
Li  2.9504865610  8.0009212930  2.1265215000
Li  -0.0000050660  2.8905206930  2.1265215000
Lu  5.4537527790  3.1487256350  2.1265215000
Lu  0.0000008670  6.2974512700  6.3795645000
8
scale = 1.75000
Li  8.6514327200  1.4877631475  6.5671987500
Li  2.5768925700  1.4877631475  6.5671987500
Li  5.6141633625  6.7484696475  6.5671987500
Li  -3.0372745725  8.2362425075  2.1890662500
Li  3.0372655775  8.2362425075  2.1890662500
Li  -0.0000052150  2.9755360075  2.1890662500
Lu  5.6141572725  3.2413352125  2.1890662500
Lu  0.0000008925  6.4826704250  6.5671987500
8
scale = 1.80000
Li  8.8986165120  1.5302706660  6.7548330000
Li  2.6505180720  1.5302706660  6.7548330000
Li  5.7745680300  6.9412830660  6.7548330000
Li  -3.1240538460  8.4715637220  2.2516110000
Li  3.1240445940  8.4715637220  2.2516110000
Li  -0.0000053640  3.0605513220  2.2516110000
Lu  5.7745617660  3.3339447900  2.2516110000
Lu  0.0000009180  6.6678895800  6.7548330000
8
scale = 1.85000
Li  9.1458003040  1.5727781845  6.9424672500
Li  2.7241435740  1.5727781845  6.9424672500
Li  5.9349726975  7.1340964845  6.9424672500
Li  -3.2108331195  8.7068849365  2.3141557500
Li  3.2108236105  8.7068849365  2.3141557500
Li  -0.0000055130  3.1455666365  2.3141557500
Lu  5.9349662595  3.4265543675  2.3141557500
Lu  0.0000009435  6.8531087350  6.9424672500
8
scale = 1.90000
Li  9.3929840960  1.6152857030  7.1301015000
Li  2.7977690760  1.6152857030  7.1301015000
Li  6.0953773650  7.3269099030  7.1301015000
Li  -3.2976123930  8.9422061510  2.3767005000
Li  3.2976026270  8.9422061510  2.3767005000
Li  -0.0000056620  3.2305819510  2.3767005000
Lu  6.0953707530  3.5191639450  2.3767005000
Lu  0.0000009690  7.0383278900  7.1301015000
8
scale = 1.95000
Li  9.6401678880  1.6577932215  7.3177357500
Li  2.8713945780  1.6577932215  7.3177357500
Li  6.2557820325  7.5197233215  7.3177357500
Li  -3.3843916665  9.1775273655  2.4392452500
Li  3.3843816435  9.1775273655  2.4392452500
Li  -0.0000058110  3.3155972655  2.4392452500
Lu  6.2557752465  3.6117735225  2.4392452500
Lu  0.0000009945  7.2235470450  7.3177357500
8
scale = 2.00000
Li  9.8873516800  1.7003007400  7.5053700000
Li  2.9450200800  1.7003007400  7.5053700000
Li  6.4161867000  7.7125367400  7.5053700000
Li  -3.4711709400  9.4128485800  2.5017900000
Li  3.4711606600  9.4128485800  2.5017900000
Li  -0.0000059600  3.4006125800  2.5017900000
Lu  6.4161797400  3.7043831000  2.5017900000
Lu  0.0000010200  7.4087662000  7.5053700000
8
scale = 2.05000
Li  10.1345354720  1.7428082585  7.6930042500
Li  3.0186455820  1.7428082585  7.6930042500
Li  6.5765913675  7.9053501585  7.6930042500
Li  -3.5579502135  9.6481697945  2.5643347500
Li  3.5579396765  9.6481697945  2.5643347500
Li  -0.0000061090  3.4856278945  2.5643347500
Lu  6.5765842335  3.7969926775  2.5643347500
Lu  0.0000010455  7.5939853550  7.6930042500
8
scale = 2.10000
Li  10.3817192640  1.7853157770  7.8806385000
Li  3.0922710840  1.7853157770  7.8806385000
Li  6.7369960350  8.0981635770  7.8806385000
Li  -3.6447294870  9.8834910090  2.6268795000
Li  3.6447186930  9.8834910090  2.6268795000
Li  -0.0000062580  3.5706432090  2.6268795000
Lu  6.7369887270  3.8896022550  2.6268795000
Lu  0.0000010710  7.7792045100  7.8806385000
8
scale = 2.15000
Li  10.6289030560  1.8278232955  8.0682727500
Li  3.1658965860  1.8278232955  8.0682727500
Li  6.8974007025  8.2909769955  8.0682727500
Li  -3.7315087605  10.1188122235  2.6894242500
Li  3.7314977095  10.1188122235  2.6894242500
Li  -0.0000064070  3.6556585235  2.6894242500
Lu  6.8973932205  3.9822118325  2.6894242500
Lu  0.0000010965  7.9644236650  8.0682727500
8
scale = 2.20000
Li  10.8760868480  1.8703308140  8.2559070000
Li  3.2395220880  1.8703308140  8.2559070000
Li  7.0578053700  8.4837904140  8.2559070000
Li  -3.8182880340  10.3541334380  2.7519690000
Li  3.8182767260  10.3541334380  2.7519690000
Li  -0.0000065560  3.7406738380  2.7519690000
Lu  7.0577977140  4.0748214100  2.7519690000
Lu  0.0000011220  8.1496428200  8.2559070000
8
scale = 2.25000
Li  11.1232706400  1.9128383325  8.4435412500
Li  3.3131475900  1.9128383325  8.4435412500
Li  7.2182100375  8.6766038325  8.4435412500
Li  -3.9050673075  10.5894546525  2.8145137500
Li  3.9050557425  10.5894546525  2.8145137500
Li  -0.0000067050  3.8256891525  2.8145137500
Lu  7.2182022075  4.1674309875  2.8145137500
Lu  0.0000011475  8.3348619750  8.4435412500
8
scale = 2.30000
Li  11.3704544320  1.9553458510  8.6311755000
Li  3.3867730920  1.9553458510  8.6311755000
Li  7.3786147050  8.8694172510  8.6311755000
Li  -3.9918465810  10.8247758670  2.8770585000
Li  3.9918347590  10.8247758670  2.8770585000
Li  -0.0000068540  3.9107044670  2.8770585000
Lu  7.3786067010  4.2600405650  2.8770585000
Lu  0.0000011730  8.5200811300  8.6311755000
8
scale = 2.35000
Li  11.6176382240  1.9978533695  8.8188097500
Li  3.4603985940  1.9978533695  8.8188097500
Li  7.5390193725  9.0622306695  8.8188097500
Li  -4.0786258545  11.0600970815  2.9396032500
Li  4.0786137755  11.0600970815  2.9396032500
Li  -0.0000070030  3.9957197815  2.9396032500
Lu  7.5390111945  4.3526501425  2.9396032500
Lu  0.0000011985  8.7053002850  8.8188097500
8
scale = 2.40000
Li  11.8648220160  2.0403608880  9.0064440000
Li  3.5340240960  2.0403608880  9.0064440000
Li  7.6994240400  9.2550440880  9.0064440000
Li  -4.1654051280  11.2954182960  3.0021480000
Li  4.1653927920  11.2954182960  3.0021480000
Li  -0.0000071520  4.0807350960  3.0021480000
Lu  7.6994156880  4.4452597200  3.0021480000
Lu  0.0000012240  8.8905194400  9.0064440000
8
scale = 2.45000
Li  12.1120058080  2.0828684065  9.1940782500
Li  3.6076495980  2.0828684065  9.1940782500
Li  7.8598287075  9.4478575065  9.1940782500
Li  -4.2521844015  11.5307395105  3.0646927500
Li  4.2521718085  11.5307395105  3.0646927500
Li  -0.0000073010  4.1657504105  3.0646927500
Lu  7.8598201815  4.5378692975  3.0646927500
Lu  0.0000012495  9.0757385950  9.1940782500
