4
scale = 0.75000
Li  0.0000000000  0.0000000000  0.0000000000
Li  1.0498709100  0.7423708350  1.8184297500
Li  2.0997502125  1.4847476100  3.6368740500
Mg  3.1496211150  2.2271184525  5.4553038000
4
scale = 0.80000
Li  0.0000000000  0.0000000000  0.0000000000
Li  1.1198623040  0.7918622240  1.9396584000
Li  2.2397335600  1.5837307840  3.8793323200
Mg  3.3595958560  2.3755930160  5.8189907200
4
scale = 0.85000
Li  0.0000000000  0.0000000000  0.0000000000
Li  1.1898536980  0.8413536130  2.0608870500
Li  2.3797169075  1.6827139580  4.1217905900
Mg  3.5695705970  2.5240675795  6.1826776400
4
scale = 0.90000
Li  0.0000000000  0.0000000000  0.0000000000
Li  1.2598450920  0.8908450020  2.1821157000
Li  2.5197002550  1.7816971320  4.3642488600
Mg  3.7795453380  2.6725421430  6.5463645600
4
scale = 0.95000
Li  0.0000000000  0.0000000000  0.0000000000
Li  1.3298364860  0.9403363910  2.3033443500
Li  2.6596836025  1.8806803060  4.6067071300
Mg  3.9895200790  2.8210167065  6.9100514800
4
scale = 1.00000
Li  0.0000000000  0.0000000000  0.0000000000
Li  1.3998278800  0.9898277800  2.4245730000
Li  2.7996669500  1.9796634800  4.8491654000
Mg  4.1994948200  2.9694912700  7.2737384000
4
scale = 1.05000
Li  0.0000000000  0.0000000000  0.0000000000
Li  1.4698192740  1.0393191690  2.5458016500
Li  2.9396502975  2.0786466540  5.0916236700
Mg  4.4094695610  3.1179658335  7.6374253200
4
scale = 1.10000
Li  0.0000000000  0.0000000000  0.0000000000
Li  1.5398106680  1.0888105580  2.6670303000
Li  3.0796336450  2.1776298280  5.3340819400
Mg  4.6194443020  3.2664403970  8.0011122400
4
scale = 1.15000
Li  0.0000000000  0.0000000000  0.0000000000
Li  1.6098020620  1.1383019470  2.7882589500
Li  3.2196169925  2.2766130020  5.5765402100
Mg  4.8294190430  3.4149149605  8.3647991600
4
scale = 1.20000
Li  0.0000000000  0.0000000000  0.0000000000
Li  1.6797934560  1.1877933360  2.9094876000
Li  3.3596003400  2.3755961760  5.8189984800
Mg  5.0393937840  3.5633895240  8.7284860800
4
scale = 1.25000
Li  0.0000000000  0.0000000000  0.0000000000
Li  1.7497848500  1.2372847250  3.0307162500
Li  3.4995836875  2.4745793500  6.0614567500
Mg  5.2493685250  3.7118640875  9.0921730000
4
scale = 1.30000
Li  0.0000000000  0.0000000000  0.0000000000
Li  1.8197762440  1.2867761140  3.1519449000
Li  3.6395670350  2.5735625240  6.3039150200
Mg  5.4593432660  3.8603386510  9.4558599200
4
scale = 1.35000
Li  0.0000000000  0.0000000000  0.0000000000
Li  1.8897676380  1.3362675030  3.2731735500
Li  3.7795503825  2.6725456980  6.5463732900
Mg  5.6693180070  4.0088132145  9.8195468400
4
scale = 1.40000
Li  0.0000000000  0.0000000000  0.0000000000
Li  1.9597590320  1.3857588920  3.3944022000
Li  3.9195337300  2.7715288720  6.7888315600
Mg  5.8792927480  4.1572877780  10.1832337600
4
scale = 1.45000
Li  0.0000000000  0.0000000000  0.0000000000
Li  2.0297504260  1.4352502810  3.5156308500
Li  4.0595170775  2.8705120460  7.0312898300
Mg  6.0892674890  4.3057623415  10.5469206800
4
scale = 1.50000
Li  0.0000000000  0.0000000000  0.0000000000
Li  2.0997418200  1.4847416700  3.6368595000
Li  4.1995004250  2.9694952200  7.2737481000
Mg  6.2992422300  4.4542369050  10.9106076000
4
scale = 1.55000
Li  0.0000000000  0.0000000000  0.0000000000
Li  2.1697332140  1.5342330590  3.7580881500
Li  4.3394837725  3.0684783940  7.5162063700
Mg  6.5092169710  4.6027114685  11.2742945200
4
scale = 1.60000
Li  0.0000000000  0.0000000000  0.0000000000
Li  2.2397246080  1.5837244480  3.8793168000
Li  4.4794671200  3.1674615680  7.7586646400
Mg  6.7191917120  4.7511860320  11.6379814400
4
scale = 1.65000
Li  0.0000000000  0.0000000000  0.0000000000
Li  2.3097160020  1.6332158370  4.0005454500
Li  4.6194504675  3.2664447420  8.0011229100
Mg  6.9291664530  4.8996605955  12.0016683600
4
scale = 1.70000
Li  0.0000000000  0.0000000000  0.0000000000
Li  2.3797073960  1.6827072260  4.1217741000
Li  4.7594338150  3.3654279160  8.2435811800
Mg  7.1391411940  5.0481351590  12.3653552800
4
scale = 1.75000
Li  0.0000000000  0.0000000000  0.0000000000
Li  2.4496987900  1.7321986150  4.2430027500
Li  4.8994171625  3.4644110900  8.4860394500
Mg  7.3491159350  5.1966097225  12.7290422000
4
scale = 1.80000
Li  0.0000000000  0.0000000000  0.0000000000
Li  2.5196901840  1.7816900040  4.3642314000
Li  5.0394005100  3.5633942640  8.7284977200
Mg  7.5590906760  5.3450842860  13.0927291200
4
scale = 1.85000
Li  0.0000000000  0.0000000000  0.0000000000
Li  2.5896815780  1.8311813930  4.4854600500
Li  5.1793838575  3.6623774380  8.9709559900
Mg  7.7690654170  5.4935588495  13.4564160400
4
scale = 1.90000
Li  0.0000000000  0.0000000000  0.0000000000
Li  2.6596729720  1.8806727820  4.6066887000
Li  5.3193672050  3.7613606120  9.2134142600
Mg  7.9790401580  5.6420334130  13.8201029600
4
scale = 1.95000
Li  0.0000000000  0.0000000000  0.0000000000
Li  2.7296643660  1.9301641710  4.7279173500
Li  5.4593505525  3.8603437860  9.4558725300
Mg  8.1890148990  5.7905079765  14.1837898800
4
scale = 2.00000
Li  0.0000000000  0.0000000000  0.0000000000
Li  2.7996557600  1.9796555600  4.8491460000
Li  5.5993339000  3.9593269600  9.6983308000
Mg  8.3989896400  5.9389825400  14.5474768000
4
scale = 2.05000
Li  0.0000000000  0.0000000000  0.0000000000
Li  2.8696471540  2.0291469490  4.9703746500
Li  5.7393172475  4.0583101340  9.9407890700
Mg  8.6089643810  6.0874571035  14.9111637200
4
scale = 2.10000
Li  0.0000000000  0.0000000000  0.0000000000
Li  2.9396385480  2.0786383380  5.0916033000
Li  5.8793005950  4.1572933080  10.1832473400
Mg  8.8189391220  6.2359316670  15.2748506400
4
scale = 2.15000
Li  0.0000000000  0.0000000000  0.0000000000
Li  3.0096299420  2.1281297270  5.2128319500
Li  6.0192839425  4.2562764820  10.4257056100
Mg  9.0289138630  6.3844062305  15.6385375600
4
scale = 2.20000
Li  0.0000000000  0.0000000000  0.0000000000
Li  3.0796213360  2.1776211160  5.3340606000
Li  6.1592672900  4.3552596560  10.6681638800
Mg  9.2388886040  6.5328807940  16.0022244800
4
scale = 2.25000
Li  0.0000000000  0.0000000000  0.0000000000
Li  3.1496127300  2.2271125050  5.4552892500
Li  6.2992506375  4.4542428300  10.9106221500
Mg  9.4488633450  6.6813553575  16.3659114000
4
scale = 2.30000
Li  0.0000000000  0.0000000000  0.0000000000
Li  3.2196041240  2.2766038940  5.5765179000
Li  6.4392339850  4.5532260040  11.1530804200
Mg  9.6588380860  6.8298299210  16.7295983200
4
scale = 2.35000
Li  0.0000000000  0.0000000000  0.0000000000
Li  3.2895955180  2.3260952830  5.6977465500
Li  6.5792173325  4.6522091780  11.3955386900
Mg  9.8688128270  6.9783044845  17.0932852400
4
scale = 2.40000
Li  0.0000000000  0.0000000000  0.0000000000
Li  3.3595869120  2.3755866720  5.8189752000
Li  6.7192006800  4.7511923520  11.6379969600
Mg  10.0787875680  7.1267790480  17.4569721600
4
scale = 2.45000
Li  0.0000000000  0.0000000000  0.0000000000
Li  3.4295783060  2.4250780610  5.9402038500
Li  6.8591840275  4.8501755260  11.8804552300
Mg  10.2887623090  7.2752536115  17.8206590800
