8
scale = 0.75000
Li  2.0452472175  0.0000000000  1.2525365250
Li  -0.7670699850  1.8959535375  1.2525365250
Li  1.2781772325  1.8959535375  -2.0871155175
Mg  1.2781772325  1.8959535375  0.2089787700
Mg  0.0000000000  0.0000000000  2.2960942800
Mg  2.0452472175  0.0000000000  -1.0435577550
Mg  -0.7670699850  1.8959535375  -1.0435577550
Mg  0.0000000000  0.0000000000  0.0000000000
8
scale = 0.80000
Li  2.1815970320  0.0000000000  1.3360389600
Li  -0.8182079840  2.0223504400  1.3360389600
Li  1.3633890480  2.0223504400  -2.2262565520
Mg  1.3633890480  2.0223504400  0.2229106880
Mg  0.0000000000  0.0000000000  2.4491672320
Mg  2.1815970320  0.0000000000  -1.1131282720
Mg  -0.8182079840  2.0223504400  -1.1131282720
Mg  0.0000000000  0.0000000000  0.0000000000
8
scale = 0.85000
Li  2.3179468465  0.0000000000  1.4195413950
Li  -0.8693459830  2.1487473425  1.4195413950
Li  1.4486008635  2.1487473425  -2.3653975865
Mg  1.4486008635  2.1487473425  0.2368426060
Mg  0.0000000000  0.0000000000  2.6022401840
Mg  2.3179468465  0.0000000000  -1.1826987890
Mg  -0.8693459830  2.1487473425  -1.1826987890
Mg  0.0000000000  0.0000000000  0.0000000000
8
scale = 0.90000
Li  2.4542966610  0.0000000000  1.5030438300
Li  -0.9204839820  2.2751442450  1.5030438300
Li  1.5338126790  2.2751442450  -2.5045386210
Mg  1.5338126790  2.2751442450  0.2507745240
Mg  0.0000000000  0.0000000000  2.7553131360
Mg  2.4542966610  0.0000000000  -1.2522693060
Mg  -0.9204839820  2.2751442450  -1.2522693060
Mg  0.0000000000  0.0000000000  0.0000000000
8
scale = 0.95000
Li  2.5906464755  0.0000000000  1.5865462650
Li  -0.9716219810  2.4015411475  1.5865462650
Li  1.6190244945  2.4015411475  -2.6436796555
Mg  1.6190244945  2.4015411475  0.2647064420
Mg  0.0000000000  0.0000000000  2.9083860880
Mg  2.5906464755  0.0000000000  -1.3218398230
Mg  -0.9716219810  2.4015411475  -1.3218398230
Mg  0.0000000000  0.0000000000  0.0000000000
8
scale = 1.00000
Li  2.7269962900  0.0000000000  1.6700487000
Li  -1.0227599800  2.5279380500  1.6700487000
Li  1.7042363100  2.5279380500  -2.7828206900
Mg  1.7042363100  2.5279380500  0.2786383600
Mg  0.0000000000  0.0000000000  3.0614590400
Mg  2.7269962900  0.0000000000  -1.3914103400
Mg  -1.0227599800  2.5279380500  -1.3914103400
Mg  0.0000000000  0.0000000000  0.0000000000
8
scale = 1.05000
Li  2.8633461045  0.0000000000  1.7535511350
Li  -1.0738979790  2.6543349525  1.7535511350
Li  1.7894481255  2.6543349525  -2.9219617245
Mg  1.7894481255  2.6543349525  0.2925702780
Mg  0.0000000000  0.0000000000  3.2145319920
Mg  2.8633461045  0.0000000000  -1.4609808570
Mg  -1.0738979790  2.6543349525  -1.4609808570
Mg  0.0000000000  0.0000000000  0.0000000000
8
scale = 1.10000
Li  2.9996959190  0.0000000000  1.8370535700
Li  -1.1250359780  2.7807318550  1.8370535700
Li  1.8746599410  2.7807318550  -3.0611027590
Mg  1.8746599410  2.7807318550  0.3065021960
Mg  0.0000000000  0.0000000000  3.3676049440
Mg  2.9996959190  0.0000000000  -1.5305513740
Mg  -1.1250359780  2.7807318550  -1.5305513740
Mg  0.0000000000  0.0000000000  0.0000000000
8
scale = 1.15000
Li  3.1360457335  0.0000000000  1.9205560050
Li  -1.1761739770  2.9071287575  1.9205560050
Li  1.9598717565  2.9071287575  -3.2002437935
Mg  1.9598717565  2.9071287575  0.3204341140
Mg  0.0000000000  0.0000000000  3.5206778960
Mg  3.1360457335  0.0000000000  -1.6001218910
Mg  -1.1761739770  2.9071287575  -1.6001218910
Mg  0.0000000000  0.0000000000  0.0000000000
8
scale = 1.20000
Li  3.2723955480  0.0000000000  2.0040584400
Li  -1.2273119760  3.0335256600  2.0040584400
Li  2.0450835720  3.0335256600  -3.3393848280
Mg  2.0450835720  3.0335256600  0.3343660320
Mg  0.0000000000  0.0000000000  3.6737508480
Mg  3.2723955480  0.0000000000  -1.6696924080
Mg  -1.2273119760  3.0335256600  -1.6696924080
Mg  0.0000000000  0.0000000000  0.0000000000
8
scale = 1.25000
Li  3.4087453625  0.0000000000  2.0875608750
Li  -1.2784499750  3.1599225625  2.0875608750
Li  2.1302953875  3.1599225625  -3.4785258625
Mg  2.1302953875  3.1599225625  0.3482979500
Mg  0.0000000000  0.0000000000  3.8268238000
Mg  3.4087453625  0.0000000000  -1.7392629250
Mg  -1.2784499750  3.1599225625  -1.7392629250
Mg  0.0000000000  0.0000000000  0.0000000000
8
scale = 1.30000
Li  3.5450951770  0.0000000000  2.1710633100
Li  -1.3295879740  3.2863194650  2.1710633100
Li  2.2155072030  3.2863194650  -3.6176668970
Mg  2.2155072030  3.2863194650  0.3622298680
Mg  0.0000000000  0.0000000000  3.9798967520
Mg  3.5450951770  0.0000000000  -1.8088334420
Mg  -1.3295879740  3.2863194650  -1.8088334420
Mg  0.0000000000  0.0000000000  0.0000000000
8
scale = 1.35000
Li  3.6814449915  0.0000000000  2.2545657450
Li  -1.3807259730  3.4127163675  2.2545657450
Li  2.3007190185  3.4127163675  -3.7568079315
Mg  2.3007190185  3.4127163675  0.3761617860
Mg  0.0000000000  0.0000000000  4.1329697040
Mg  3.6814449915  0.0000000000  -1.8784039590
Mg  -1.3807259730  3.4127163675  -1.8784039590
Mg  0.0000000000  0.0000000000  0.0000000000
8
scale = 1.40000
Li  3.8177948060  0.0000000000  2.3380681800
Li  -1.4318639720  3.5391132700  2.3380681800
Li  2.3859308340  3.5391132700  -3.8959489660
Mg  2.3859308340  3.5391132700  0.3900937040
Mg  0.0000000000  0.0000000000  4.2860426560
Mg  3.8177948060  0.0000000000  -1.9479744760
Mg  -1.4318639720  3.5391132700  -1.9479744760
Mg  0.0000000000  0.0000000000  0.0000000000
8
scale = 1.45000
Li  3.9541446205  0.0000000000  2.4215706150
Li  -1.4830019710  3.6655101725  2.4215706150
Li  2.4711426495  3.6655101725  -4.0350900005
Mg  2.4711426495  3.6655101725  0.4040256220
Mg  0.0000000000  0.0000000000  4.4391156080
Mg  3.9541446205  0.0000000000  -2.0175449930
Mg  -1.4830019710  3.6655101725  -2.0175449930
Mg  0.0000000000  0.0000000000  0.0000000000
8
scale = 1.50000
Li  4.0904944350  0.0000000000  2.5050730500
Li  -1.5341399700  3.7919070750  2.5050730500
Li  2.5563544650  3.7919070750  -4.1742310350
Mg  2.5563544650  3.7919070750  0.4179575400
Mg  0.0000000000  0.0000000000  4.5921885600
Mg  4.0904944350  0.0000000000  -2.0871155100
Mg  -1.5341399700  3.7919070750  -2.0871155100
Mg  0.0000000000  0.0000000000  0.0000000000
8
scale = 1.55000
Li  4.2268442495  0.0000000000  2.5885754850
Li  -1.5852779690  3.9183039775  2.5885754850
Li  2.6415662805  3.9183039775  -4.3133720695
Mg  2.6415662805  3.9183039775  0.4318894580
Mg  0.0000000000  0.0000000000  4.7452615120
Mg  4.2268442495  0.0000000000  -2.1566860270
Mg  -1.5852779690  3.9183039775  -2.1566860270
Mg  0.0000000000  0.0000000000  0.0000000000
8
scale = 1.60000
Li  4.3631940640  0.0000000000  2.6720779200
Li  -1.6364159680  4.0447008800  2.6720779200
Li  2.7267780960  4.0447008800  -4.4525131040
Mg  2.7267780960  4.0447008800  0.4458213760
Mg  0.0000000000  0.0000000000  4.8983344640
Mg  4.3631940640  0.0000000000  -2.2262565440
Mg  -1.6364159680  4.0447008800  -2.2262565440
Mg  0.0000000000  0.0000000000  0.0000000000
8
scale = 1.65000
Li  4.4995438785  0.0000000000  2.7555803550
Li  -1.6875539670  4.1710977825  2.7555803550
Li  2.8119899115  4.1710977825  -4.5916541385
Mg  2.8119899115  4.1710977825  0.4597532940
Mg  0.0000000000  0.0000000000  5.0514074160
Mg  4.4995438785  0.0000000000  -2.2958270610
Mg  -1.6875539670  4.1710977825  -2.2958270610
Mg  0.0000000000  0.0000000000  0.0000000000
8
scale = 1.70000
Li  4.6358936930  0.0000000000  2.8390827900
Li  -1.7386919660  4.2974946850  2.8390827900
Li  2.8972017270  4.2974946850  -4.7307951730
Mg  2.8972017270  4.2974946850  0.4736852120
Mg  0.0000000000  0.0000000000  5.2044803680
Mg  4.6358936930  0.0000000000  -2.3653975780
Mg  -1.7386919660  4.2974946850  -2.3653975780
Mg  0.0000000000  0.0000000000  0.0000000000
8
scale = 1.75000
Li  4.7722435075  0.0000000000  2.9225852250
Li  -1.7898299650  4.4238915875  2.9225852250
Li  2.9824135425  4.4238915875  -4.8699362075
Mg  2.9824135425  4.4238915875  0.4876171300
Mg  0.0000000000  0.0000000000  5.3575533200
Mg  4.7722435075  0.0000000000  -2.4349680950
Mg  -1.7898299650  4.4238915875  -2.4349680950
Mg  0.0000000000  0.0000000000  0.0000000000
8
scale = 1.80000
Li  4.9085933220  0.0000000000  3.0060876600
Li  -1.8409679640  4.5502884900  3.0060876600
Li  3.0676253580  4.5502884900  -5.0090772420
Mg  3.0676253580  4.5502884900  0.5015490480
Mg  0.0000000000  0.0000000000  5.5106262720
Mg  4.9085933220  0.0000000000  -2.5045386120
Mg  -1.8409679640  4.5502884900  -2.5045386120
Mg  0.0000000000  0.0000000000  0.0000000000
8
scale = 1.85000
Li  5.0449431365  0.0000000000  3.0895900950
Li  -1.8921059630  4.6766853925  3.0895900950
Li  3.1528371735  4.6766853925  -5.1482182765
Mg  3.1528371735  4.6766853925  0.5154809660
Mg  0.0000000000  0.0000000000  5.6636992240
Mg  5.0449431365  0.0000000000  -2.5741091290
Mg  -1.8921059630  4.6766853925  -2.5741091290
Mg  0.0000000000  0.0000000000  0.0000000000
8
scale = 1.90000
Li  5.1812929510  0.0000000000  3.1730925300
Li  -1.9432439620  4.8030822950  3.1730925300
Li  3.2380489890  4.8030822950  -5.2873593110
Mg  3.2380489890  4.8030822950  0.5294128840
Mg  0.0000000000  0.0000000000  5.8167721760
Mg  5.1812929510  0.0000000000  -2.6436796460
Mg  -1.9432439620  4.8030822950  -2.6436796460
Mg  0.0000000000  0.0000000000  0.0000000000
8
scale = 1.95000
Li  5.3176427655  0.0000000000  3.2565949650
Li  -1.9943819610  4.9294791975  3.2565949650
Li  3.3232608045  4.9294791975  -5.4265003455
Mg  3.3232608045  4.9294791975  0.5433448020
Mg  0.0000000000  0.0000000000  5.9698451280
Mg  5.3176427655  0.0000000000  -2.7132501630
Mg  -1.9943819610  4.9294791975  -2.7132501630
Mg  0.0000000000  0.0000000000  0.0000000000
8
scale = 2.00000
Li  5.4539925800  0.0000000000  3.3400974000
Li  -2.0455199600  5.0558761000  3.3400974000
Li  3.4084726200  5.0558761000  -5.5656413800
Mg  3.4084726200  5.0558761000  0.5572767200
Mg  0.0000000000  0.0000000000  6.1229180800
Mg  5.4539925800  0.0000000000  -2.7828206800
Mg  -2.0455199600  5.0558761000  -2.7828206800
Mg  0.0000000000  0.0000000000  0.0000000000
8
scale = 2.05000
Li  5.5903423945  0.0000000000  3.4235998350
Li  -2.0966579590  5.1822730025  3.4235998350
Li  3.4936844355  5.1822730025  -5.7047824145
Mg  3.4936844355  5.1822730025  0.5712086380
Mg  0.0000000000  0.0000000000  6.2759910320
Mg  5.5903423945  0.0000000000  -2.8523911970
Mg  -2.0966579590  5.1822730025  -2.8523911970
Mg  0.0000000000  0.0000000000  0.0000000000
8
scale = 2.10000
Li  5.7266922090  0.0000000000  3.5071022700
Li  -2.1477959580  5.3086699050  3.5071022700
Li  3.5788962510  5.3086699050  -5.8439234490
Mg  3.5788962510  5.3086699050  0.5851405560
Mg  0.0000000000  0.0000000000  6.4290639840
Mg  5.7266922090  0.0000000000  -2.9219617140
Mg  -2.1477959580  5.3086699050  -2.9219617140
Mg  0.0000000000  0.0000000000  0.0000000000
8
scale = 2.15000
Li  5.8630420235  0.0000000000  3.5906047050
Li  -2.1989339570  5.4350668075  3.5906047050
Li  3.6641080665  5.4350668075  -5.9830644835
Mg  3.6641080665  5.4350668075  0.5990724740
Mg  0.0000000000  0.0000000000  6.5821369360
Mg  5.8630420235  0.0000000000  -2.9915322310
Mg  -2.1989339570  5.4350668075  -2.9915322310
Mg  0.0000000000  0.0000000000  0.0000000000
8
scale = 2.20000
Li  5.9993918380  0.0000000000  3.6741071400
Li  -2.2500719560  5.5614637100  3.6741071400
Li  3.7493198820  5.5614637100  -6.1222055180
Mg  3.7493198820  5.5614637100  0.6130043920
Mg  0.0000000000  0.0000000000  6.7352098880
Mg  5.9993918380  0.0000000000  -3.0611027480
Mg  -2.2500719560  5.5614637100  -3.0611027480
Mg  0.0000000000  0.0000000000  0.0000000000
8
scale = 2.25000
Li  6.1357416525  0.0000000000  3.7576095750
Li  -2.3012099550  5.6878606125  3.7576095750
Li  3.8345316975  5.6878606125  -6.2613465525
Mg  3.8345316975  5.6878606125  0.6269363100
Mg  0.0000000000  0.0000000000  6.8882828400
Mg  6.1357416525  0.0000000000  -3.1306732650
Mg  -2.3012099550  5.6878606125  -3.1306732650
Mg  0.0000000000  0.0000000000  0.0000000000
8
scale = 2.30000
Li  6.2720914670  0.0000000000  3.8411120100
Li  -2.3523479540  5.8142575150  3.8411120100
Li  3.9197435130  5.8142575150  -6.4004875870
Mg  3.9197435130  5.8142575150  0.6408682280
Mg  0.0000000000  0.0000000000  7.0413557920
Mg  6.2720914670  0.0000000000  -3.2002437820
Mg  -2.3523479540  5.8142575150  -3.2002437820
Mg  0.0000000000  0.0000000000  0.0000000000
8
scale = 2.35000
Li  6.4084412815  0.0000000000  3.9246144450
Li  -2.4034859530  5.9406544175  3.9246144450
Li  4.0049553285  5.9406544175  -6.5396286215
Mg  4.0049553285  5.9406544175  0.6548001460
Mg  0.0000000000  0.0000000000  7.1944287440
Mg  6.4084412815  0.0000000000  -3.2698142990
Mg  -2.4034859530  5.9406544175  -3.2698142990
Mg  0.0000000000  0.0000000000  0.0000000000
8
scale = 2.40000
Li  6.5447910960  0.0000000000  4.0081168800
Li  -2.4546239520  6.0670513200  4.0081168800
Li  4.0901671440  6.0670513200  -6.6787696560
Mg  4.0901671440  6.0670513200  0.6687320640
Mg  0.0000000000  0.0000000000  7.3475016960
Mg  6.5447910960  0.0000000000  -3.3393848160
Mg  -2.4546239520  6.0670513200  -3.3393848160
Mg  0.0000000000  0.0000000000  0.0000000000
8
scale = 2.45000
Li  6.6811409105  0.0000000000  4.0916193150
Li  -2.5057619510  6.1934482225  4.0916193150
Li  4.1753789595  6.1934482225  -6.8179106905
Mg  4.1753789595  6.1934482225  0.6826639820
Mg  0.0000000000  0.0000000000  7.5005746480
Mg  6.6811409105  0.0000000000  -3.4089553330
Mg  -2.5057619510  6.1934482225  -3.4089553330
Mg  0.0000000000  0.0000000000  0.0000000000
