4
scale = 0.75000
Li  1.1764010775  1.4450312400  -2.6121657600
Li  0.2888996400  2.1675468675  -0.6414935850
Li  2.0639025150  0.7225156200  -0.6414935850
Mg  0.0000000000  0.0000000000  0.0000000000
4
scale = 0.80000
Li  1.2548278160  1.5413666560  -2.7863101440
Li  0.3081596160  2.3120499920  -0.6842598240
Li  2.2014960160  0.7706833280  -0.6842598240
Mg  0.0000000000  0.0000000000  0.0000000000
4
scale = 0.85000
Li  1.3332545545  1.6377020720  -2.9604545280
Li  0.3274195920  2.4565531165  -0.7270260630
Li  2.3390895170  0.8188510360  -0.7270260630
Mg  0.0000000000  0.0000000000  0.0000000000
4
scale = 0.90000
Li  1.4116812930  1.7340374880  -3.1345989120
Li  0.3466795680  2.6010562410  -0.7697923020
Li  2.4766830180  0.8670187440  -0.7697923020
Mg  0.0000000000  0.0000000000  0.0000000000
4
scale = 0.95000
Li  1.4901080315  1.8303729040  -3.3087432960
Li  0.3659395440  2.7455593655  -0.8125585410
Li  2.6142765190  0.9151864520  -0.8125585410
Mg  0.0000000000  0.0000000000  0.0000000000
4
scale = 1.00000
Li  1.5685347700  1.9267083200  -3.4828876800
Li  0.3851995200  2.8900624900  -0.8553247800
Li  2.7518700200  0.9633541600  -0.8553247800
Mg  0.0000000000  0.0000000000  0.0000000000
4
scale = 1.05000
Li  1.6469615085  2.0230437360  -3.6570320640
Li  0.4044594960  3.0345656145  -0.8980910190
Li  2.8894635210  1.0115218680  -0.8980910190
Mg  0.0000000000  0.0000000000  0.0000000000
4
scale = 1.10000
Li  1.7253882470  2.1193791520  -3.8311764480
Li  0.4237194720  3.1790687390  -0.9408572580
Li  3.0270570220  1.0596895760  -0.9408572580
Mg  0.0000000000  0.0000000000  0.0000000000
4
scale = 1.15000
Li  1.8038149855  2.2157145680  -4.0053208320
Li  0.4429794480  3.3235718635  -0.9836234970
Li  3.1646505230  1.1078572840  -0.9836234970
Mg  0.0000000000  0.0000000000  0.0000000000
4
scale = 1.20000
Li  1.8822417240  2.3120499840  -4.1794652160
Li  0.4622394240  3.4680749880  -1.0263897360
Li  3.3022440240  1.1560249920  -1.0263897360
Mg  0.0000000000  0.0000000000  0.0000000000
4
scale = 1.25000
Li  1.9606684625  2.4083854000  -4.3536096000
Li  0.4814994000  3.6125781125  -1.0691559750
Li  3.4398375250  1.2041927000  -1.0691559750
Mg  0.0000000000  0.0000000000  0.0000000000
4
scale = 1.30000
Li  2.0390952010  2.5047208160  -4.5277539840
Li  0.5007593760  3.7570812370  -1.1119222140
Li  3.5774310260  1.2523604080  -1.1119222140
Mg  0.0000000000  0.0000000000  0.0000000000
4
scale = 1.35000
Li  2.1175219395  2.6010562320  -4.7018983680
Li  0.5200193520  3.9015843615  -1.1546884530
Li  3.7150245270  1.3005281160  -1.1546884530
Mg  0.0000000000  0.0000000000  0.0000000000
4
scale = 1.40000
Li  2.1959486780  2.6973916480  -4.8760427520
Li  0.5392793280  4.0460874860  -1.1974546920
Li  3.8526180280  1.3486958240  -1.1974546920
Mg  0.0000000000  0.0000000000  0.0000000000
4
scale = 1.45000
Li  2.2743754165  2.7937270640  -5.0501871360
Li  0.5585393040  4.1905906105  -1.2402209310
Li  3.9902115290  1.3968635320  -1.2402209310
Mg  0.0000000000  0.0000000000  0.0000000000
4
scale = 1.50000
Li  2.3528021550  2.8900624800  -5.2243315200
Li  0.5777992800  4.3350937350  -1.2829871700
Li  4.1278050300  1.4450312400  -1.2829871700
Mg  0.0000000000  0.0000000000  0.0000000000
4
scale = 1.55000
Li  2.4312288935  2.9863978960  -5.3984759040
Li  0.5970592560  4.4795968595  -1.3257534090
Li  4.2653985310  1.4931989480  -1.3257534090
Mg  0.0000000000  0.0000000000  0.0000000000
4
scale = 1.60000
Li  2.5096556320  3.0827333120  -5.5726202880
Li  0.6163192320  4.6240999840  -1.3685196480
Li  4.4029920320  1.5413666560  -1.3685196480
Mg  0.0000000000  0.0000000000  0.0000000000
4
scale = 1.65000
Li  2.5880823705  3.1790687280  -5.7467646720
Li  0.6355792080  4.7686031085  -1.4112858870
Li  4.5405855330  1.5895343640  -1.4112858870
Mg  0.0000000000  0.0000000000  0.0000000000
4
scale = 1.70000
Li  2.6665091090  3.2754041440  -5.9209090560
Li  0.6548391840  4.9131062330  -1.4540521260
Li  4.6781790340  1.6377020720  -1.4540521260
Mg  0.0000000000  0.0000000000  0.0000000000
4
scale = 1.75000
Li  2.7449358475  3.3717395600  -6.0950534400
Li  0.6740991600  5.0576093575  -1.4968183650
Li  4.8157725350  1.6858697800  -1.4968183650
Mg  0.0000000000  0.0000000000  0.0000000000
4
scale = 1.80000
Li  2.8233625860  3.4680749760  -6.2691978240
Li  0.6933591360  5.2021124820  -1.5395846040
Li  4.9533660360  1.7340374880  -1.5395846040
Mg  0.0000000000  0.0000000000  0.0000000000
4
scale = 1.85000
Li  2.9017893245  3.5644103920  -6.4433422080
Li  0.7126191120  5.3466156065  -1.5823508430
Li  5.0909595370  1.7822051960  -1.5823508430
Mg  0.0000000000  0.0000000000  0.0000000000
4
scale = 1.90000
Li  2.9802160630  3.6607458080  -6.6174865920
Li  0.7318790880  5.4911187310  -1.6251170820
Li  5.2285530380  1.8303729040  -1.6251170820
Mg  0.0000000000  0.0000000000  0.0000000000
4
scale = 1.95000
Li  3.0586428015  3.7570812240  -6.7916309760
Li  0.7511390640  5.6356218555  -1.6678833210
Li  5.3661465390  1.8785406120  -1.6678833210
Mg  0.0000000000  0.0000000000  0.0000000000
4
scale = 2.00000
Li  3.1370695400  3.8534166400  -6.9657753600
Li  0.7703990400  5.7801249800  -1.7106495600
Li  5.5037400400  1.9267083200  -1.7106495600
Mg  0.0000000000  0.0000000000  0.0000000000
4
scale = 2.05000
Li  3.2154962785  3.9497520560  -7.1399197440
Li  0.7896590160  5.9246281045  -1.7534157990
Li  5.6413335410  1.9748760280  -1.7534157990
Mg  0.0000000000  0.0000000000  0.0000000000
4
scale = 2.10000
Li  3.2939230170  4.0460874720  -7.3140641280
Li  0.8089189920  6.0691312290  -1.7961820380
Li  5.7789270420  2.0230437360  -1.7961820380
Mg  0.0000000000  0.0000000000  0.0000000000
4
scale = 2.15000
Li  3.3723497555  4.1424228880  -7.4882085120
Li  0.8281789680  6.2136343535  -1.8389482770
Li  5.9165205430  2.0712114440  -1.8389482770
Mg  0.0000000000  0.0000000000  0.0000000000
4
scale = 2.20000
Li  3.4507764940  4.2387583040  -7.6623528960
Li  0.8474389440  6.3581374780  -1.8817145160
Li  6.0541140440  2.1193791520  -1.8817145160
Mg  0.0000000000  0.0000000000  0.0000000000
4
scale = 2.25000
Li  3.5292032325  4.3350937200  -7.8364972800
Li  0.8666989200  6.5026406025  -1.9244807550
Li  6.1917075450  2.1675468600  -1.9244807550
Mg  0.0000000000  0.0000000000  0.0000000000
4
scale = 2.30000
Li  3.6076299710  4.4314291360  -8.0106416640
Li  0.8859588960  6.6471437270  -1.9672469940
Li  6.3293010460  2.2157145680  -1.9672469940
Mg  0.0000000000  0.0000000000  0.0000000000
4
scale = 2.35000
Li  3.6860567095  4.5277645520  -8.1847860480
Li  0.9052188720  6.7916468515  -2.0100132330
Li  6.4668945470  2.2638822760  -2.0100132330
Mg  0.0000000000  0.0000000000  0.0000000000
4
scale = 2.40000
Li  3.7644834480  4.6240999680  -8.3589304320
Li  0.9244788480  6.9361499760  -2.0527794720
Li  6.6044880480  2.3120499840  -2.0527794720
Mg  0.0000000000  0.0000000000  0.0000000000
4
scale = 2.45000
Li  3.8429101865  4.7204353840  -8.5330748160
Li  0.9437388240  7.0806531005  -2.0955457110
Li  6.7420815490  2.3602176920  -2.0955457110
Mg  0.0000000000  0.0000000000  0.0000000000
