8
scale = 0.75000
Li  1.1428153800  0.6598074150  0.9396644400
Li  3.4253971725  0.6598074150  0.9396644400
Li  2.2841062725  2.6365811925  0.9396644400
Li  1.1412932025  3.2963846100  2.8189933125
Li  0.0000023100  1.3196108400  2.8189933125
Li  -1.1412885900  3.2963846100  2.8189933125
Mg  -0.0000000000  2.6374613550  0.9396644400
Mg  2.2841085825  1.3187306775  2.8189933125
8
scale = 0.80000
Li  1.2190030720  0.7037945760  1.0023087360
Li  3.6537569840  0.7037945760  1.0023087360
Li  2.4363800240  2.8123532720  1.0023087360
Li  1.2173794160  3.5161435840  3.0069262000
Li  0.0000024640  1.4075848960  3.0069262000
Li  -1.2173744960  3.5161435840  3.0069262000
Mg  -0.0000000000  2.8132921120  1.0023087360
Mg  2.4363824880  1.4066460560  3.0069262000
8
scale = 0.85000
Li  1.2951907640  0.7477817370  1.0649530320
Li  3.8821167955  0.7477817370  1.0649530320
Li  2.5886537755  2.9881253515  1.0649530320
Li  1.2934656295  3.7359025580  3.1948590875
Li  0.0000026180  1.4955589520  3.1948590875
Li  -1.2934604020  3.7359025580  3.1948590875
Mg  -0.0000000000  2.9891228690  1.0649530320
Mg  2.5886563935  1.4945614345  3.1948590875
8
scale = 0.90000
Li  1.3713784560  0.7917688980  1.1275973280
Li  4.1104766070  0.7917688980  1.1275973280
Li  2.7409275270  3.1638974310  1.1275973280
Li  1.3695518430  3.9556615320  3.3827919750
Li  0.0000027720  1.5835330080  3.3827919750
Li  -1.3695463080  3.9556615320  3.3827919750
Mg  -0.0000000000  3.1649536260  1.1275973280
Mg  2.7409302990  1.5824768130  3.3827919750
8
scale = 0.95000
Li  1.4475661480  0.8357560590  1.1902416240
Li  4.3388364185  0.8357560590  1.1902416240
Li  2.8932012785  3.3396695105  1.1902416240
Li  1.4456380565  4.1754205060  3.5707248625
Li  0.0000029260  1.6715070640  3.5707248625
Li  -1.4456322140  4.1754205060  3.5707248625
Mg  -0.0000000000  3.3407843830  1.1902416240
Mg  2.8932042045  1.6703921915  3.5707248625
8
scale = 1.00000
Li  1.5237538400  0.8797432200  1.2528859200
Li  4.5671962300  0.8797432200  1.2528859200
Li  3.0454750300  3.5154415900  1.2528859200
Li  1.5217242700  4.3951794800  3.7586577500
Li  0.0000030800  1.7594811200  3.7586577500
Li  -1.5217181200  4.3951794800  3.7586577500
Mg  -0.0000000000  3.5166151400  1.2528859200
Mg  3.0454781100  1.7583075700  3.7586577500
8
scale = 1.05000
Li  1.5999415320  0.9237303810  1.3155302160
Li  4.7955560415  0.9237303810  1.3155302160
Li  3.1977487815  3.6912136695  1.3155302160
Li  1.5978104835  4.6149384540  3.9465906375
Li  0.0000032340  1.8474551760  3.9465906375
Li  -1.5978040260  4.6149384540  3.9465906375
Mg  -0.0000000000  3.6924458970  1.3155302160
Mg  3.1977520155  1.8462229485  3.9465906375
8
scale = 1.10000
Li  1.6761292240  0.9677175420  1.3781745120
Li  5.0239158530  0.9677175420  1.3781745120
Li  3.3500225330  3.8669857490  1.3781745120
Li  1.6738966970  4.8346974280  4.1345235250
Li  0.0000033880  1.9354292320  4.1345235250
Li  -1.6738899320  4.8346974280  4.1345235250
Mg  -0.0000000000  3.8682766540  1.3781745120
Mg  3.3500259210  1.9341383270  4.1345235250
8
scale = 1.15000
Li  1.7523169160  1.0117047030  1.4408188080
Li  5.2522756645  1.0117047030  1.4408188080
Li  3.5022962845  4.0427578285  1.4408188080
Li  1.7499829105  5.0544564020  4.3224564125
Li  0.0000035420  2.0234032880  4.3224564125
Li  -1.7499758380  5.0544564020  4.3224564125
Mg  -0.0000000000  4.0441074110  1.4408188080
Mg  3.5022998265  2.0220537055  4.3224564125
8
scale = 1.20000
Li  1.8285046080  1.0556918640  1.5034631040
Li  5.4806354760  1.0556918640  1.5034631040
Li  3.6545700360  4.2185299080  1.5034631040
Li  1.8260691240  5.2742153760  4.5103893000
Li  0.0000036960  2.1113773440  4.5103893000
Li  -1.8260617440  5.2742153760  4.5103893000
Mg  -0.0000000000  4.2199381680  1.5034631040
Mg  3.6545737320  2.1099690840  4.5103893000
8
scale = 1.25000
Li  1.9046923000  1.0996790250  1.5661074000
Li  5.7089952875  1.0996790250  1.5661074000
Li  3.8068437875  4.3943019875  1.5661074000
Li  1.9021553375  5.4939743500  4.6983221875
Li  0.0000038500  2.1993514000  4.6983221875
Li  -1.9021476500  5.4939743500  4.6983221875
Mg  -0.0000000000  4.3957689250  1.5661074000
Mg  3.8068476375  2.1978844625  4.6983221875
8
scale = 1.30000
Li  1.9808799920  1.1436661860  1.6287516960
Li  5.9373550990  1.1436661860  1.6287516960
Li  3.9591175390  4.5700740670  1.6287516960
Li  1.9782415510  5.7137333240  4.8862550750
Li  0.0000040040  2.2873254560  4.8862550750
Li  -1.9782335560  5.7137333240  4.8862550750
Mg  -0.0000000000  4.5715996820  1.6287516960
Mg  3.9591215430  2.2857998410  4.8862550750
8
scale = 1.35000
Li  2.0570676840  1.1876533470  1.6913959920
Li  6.1657149105  1.1876533470  1.6913959920
Li  4.1113912905  4.7458461465  1.6913959920
Li  2.0543277645  5.9334922980  5.0741879625
Li  0.0000041580  2.3752995120  5.0741879625
Li  -2.0543194620  5.9334922980  5.0741879625
Mg  -0.0000000000  4.7474304390  1.6913959920
Mg  4.1113954485  2.3737152195  5.0741879625
8
scale = 1.40000
Li  2.1332553760  1.2316405080  1.7540402880
Li  6.3940747220  1.2316405080  1.7540402880
Li  4.2636650420  4.9216182260  1.7540402880
Li  2.1304139780  6.1532512720  5.2621208500
Li  0.0000043120  2.4632735680  5.2621208500
Li  -2.1304053680  6.1532512720  5.2621208500
Mg  -0.0000000000  4.9232611960  1.7540402880
Mg  4.2636693540  2.4616305980  5.2621208500
8
scale = 1.45000
Li  2.2094430680  1.2756276690  1.8166845840
Li  6.6224345335  1.2756276690  1.8166845840
Li  4.4159387935  5.0973903055  1.8166845840
Li  2.2065001915  6.3730102460  5.4500537375
Li  0.0000044660  2.5512476240  5.4500537375
Li  -2.2064912740  6.3730102460  5.4500537375
Mg  -0.0000000000  5.0990919530  1.8166845840
Mg  4.4159432595  2.5495459765  5.4500537375
8
scale = 1.50000
Li  2.2856307600  1.3196148300  1.8793288800
Li  6.8507943450  1.3196148300  1.8793288800
Li  4.5682125450  5.2731623850  1.8793288800
Li  2.2825864050  6.5927692200  5.6379866250
Li  0.0000046200  2.6392216800  5.6379866250
Li  -2.2825771800  6.5927692200  5.6379866250
Mg  -0.0000000000  5.2749227100  1.8793288800
Mg  4.5682171650  2.6374613550  5.6379866250
8
scale = 1.55000
Li  2.3618184520  1.3636019910  1.9419731760
Li  7.0791541565  1.3636019910  1.9419731760
Li  4.7204862965  5.4489344645  1.9419731760
Li  2.3586726185  6.8125281940  5.8259195125
Li  0.0000047740  2.7271957360  5.8259195125
Li  -2.3586630860  6.8125281940  5.8259195125
Mg  -0.0000000000  5.4507534670  1.9419731760
Mg  4.7204910705  2.7253767335  5.8259195125
8
scale = 1.60000
Li  2.4380061440  1.4075891520  2.0046174720
Li  7.3075139680  1.4075891520  2.0046174720
Li  4.8727600480  5.6247065440  2.0046174720
Li  2.4347588320  7.0322871680  6.0138524000
Li  0.0000049280  2.8151697920  6.0138524000
Li  -2.4347489920  7.0322871680  6.0138524000
Mg  -0.0000000000  5.6265842240  2.0046174720
Mg  4.8727649760  2.8132921120  6.0138524000
8
scale = 1.65000
Li  2.5141938360  1.4515763130  2.0672617680
Li  7.5358737795  1.4515763130  2.0672617680
Li  5.0250337995  5.8004786235  2.0672617680
Li  2.5108450455  7.2520461420  6.2017852875
Li  0.0000050820  2.9031438480  6.2017852875
Li  -2.5108348980  7.2520461420  6.2017852875
Mg  -0.0000000000  5.8024149810  2.0672617680
Mg  5.0250388815  2.9012074905  6.2017852875
8
scale = 1.70000
Li  2.5903815280  1.4955634740  2.1299060640
Li  7.7642335910  1.4955634740  2.1299060640
Li  5.1773075510  5.9762507030  2.1299060640
Li  2.5869312590  7.4718051160  6.3897181750
Li  0.0000052360  2.9911179040  6.3897181750
Li  -2.5869208040  7.4718051160  6.3897181750
Mg  -0.0000000000  5.9782457380  2.1299060640
Mg  5.1773127870  2.9891228690  6.3897181750
8
scale = 1.75000
Li  2.6665692200  1.5395506350  2.1925503600
Li  7.9925934025  1.5395506350  2.1925503600
Li  5.3295813025  6.1520227825  2.1925503600
Li  2.6630174725  7.6915640900  6.5776510625
Li  0.0000053900  3.0790919600  6.5776510625
Li  -2.6630067100  7.6915640900  6.5776510625
Mg  -0.0000000000  6.1540764950  2.1925503600
Mg  5.3295866925  3.0770382475  6.5776510625
8
scale = 1.80000
Li  2.7427569120  1.5835377960  2.2551946560
Li  8.2209532140  1.5835377960  2.2551946560
Li  5.4818550540  6.3277948620  2.2551946560
Li  2.7391036860  7.9113230640  6.7655839500
Li  0.0000055440  3.1670660160  6.7655839500
Li  -2.7390926160  7.9113230640  6.7655839500
Mg  -0.0000000000  6.3299072520  2.2551946560
Mg  5.4818605980  3.1649536260  6.7655839500
8
scale = 1.85000
Li  2.8189446040  1.6275249570  2.3178389520
Li  8.4493130255  1.6275249570  2.3178389520
Li  5.6341288055  6.5035669415  2.3178389520
Li  2.8151898995  8.1310820380  6.9535168375
Li  0.0000056980  3.2550400720  6.9535168375
Li  -2.8151785220  8.1310820380  6.9535168375
Mg  -0.0000000000  6.5057380090  2.3178389520
Mg  5.6341345035  3.2528690045  6.9535168375
8
scale = 1.90000
Li  2.8951322960  1.6715121180  2.3804832480
Li  8.6776728370  1.6715121180  2.3804832480
Li  5.7864025570  6.6793390210  2.3804832480
Li  2.8912761130  8.3508410120  7.1414497250
Li  0.0000058520  3.3430141280  7.1414497250
Li  -2.8912644280  8.3508410120  7.1414497250
Mg  -0.0000000000  6.6815687660  2.3804832480
Mg  5.7864084090  3.3407843830  7.1414497250
8
scale = 1.95000
Li  2.9713199880  1.7154992790  2.4431275440
Li  8.9060326485  1.7154992790  2.4431275440
Li  5.9386763085  6.8551111005  2.4431275440
Li  2.9673623265  8.5705999860  7.3293826125
Li  0.0000060060  3.4309881840  7.3293826125
Li  -2.9673503340  8.5705999860  7.3293826125
Mg  -0.0000000000  6.8573995230  2.4431275440
Mg  5.9386823145  3.4286997615  7.3293826125
8
scale = 2.00000
Li  3.0475076800  1.7594864400  2.5057718400
Li  9.1343924600  1.7594864400  2.5057718400
Li  6.0909500600  7.0308831800  2.5057718400
Li  3.0434485400  8.7903589600  7.5173155000
Li  0.0000061600  3.5189622400  7.5173155000
Li  -3.0434362400  8.7903589600  7.5173155000
Mg  -0.0000000000  7.0332302800  2.5057718400
Mg  6.0909562200  3.5166151400  7.5173155000
8
scale = 2.05000
Li  3.1236953720  1.8034736010  2.5684161360
Li  9.3627522715  1.8034736010  2.5684161360
Li  6.2432238115  7.2066552595  2.5684161360
Li  3.1195347535  9.0101179340  7.7052483875
Li  0.0000063140  3.6069362960  7.7052483875
Li  -3.1195221460  9.0101179340  7.7052483875
Mg  -0.0000000000  7.2090610370  2.5684161360
Mg  6.2432301255  3.6045305185  7.7052483875
8
scale = 2.10000
Li  3.1998830640  1.8474607620  2.6310604320
Li  9.5911120830  1.8474607620  2.6310604320
Li  6.3954975630  7.3824273390  2.6310604320
Li  3.1956209670  9.2298769080  7.8931812750
Li  0.0000064680  3.6949103520  7.8931812750
Li  -3.1956080520  9.2298769080  7.8931812750
Mg  -0.0000000000  7.3848917940  2.6310604320
Mg  6.3955040310  3.6924458970  7.8931812750
8
scale = 2.15000
Li  3.2760707560  1.8914479230  2.6937047280
Li  9.8194718945  1.8914479230  2.6937047280
Li  6.5477713145  7.5581994185  2.6937047280
Li  3.2717071805  9.4496358820  8.0811141625
Li  0.0000066220  3.7828844080  8.0811141625
Li  -3.2716939580  9.4496358820  8.0811141625
Mg  -0.0000000000  7.5607225510  2.6937047280
Mg  6.5477779365  3.7803612755  8.0811141625
8
scale = 2.20000
Li  3.3522584480  1.9354350840  2.7563490240
Li  10.0478317060  1.9354350840  2.7563490240
Li  6.7000450660  7.7339714980  2.7563490240
Li  3.3477933940  9.6693948560  8.2690470500
Li  0.0000067760  3.8708584640  8.2690470500
Li  -3.3477798640  9.6693948560  8.2690470500
Mg  -0.0000000000  7.7365533080  2.7563490240
Mg  6.7000518420  3.8682766540  8.2690470500
8
scale = 2.25000
Li  3.4284461400  1.9794222450  2.8189933200
Li  10.2761915175  1.9794222450  2.8189933200
Li  6.8523188175  7.9097435775  2.8189933200
Li  3.4238796075  9.8891538300  8.4569799375
Li  0.0000069300  3.9588325200  8.4569799375
Li  -3.4238657700  9.8891538300  8.4569799375
Mg  -0.0000000000  7.9123840650  2.8189933200
Mg  6.8523257475  3.9561920325  8.4569799375
8
scale = 2.30000
Li  3.5046338320  2.0234094060  2.8816376160
Li  10.5045513290  2.0234094060  2.8816376160
Li  7.0045925690  8.0855156570  2.8816376160
Li  3.4999658210  10.1089128040  8.6449128250
Li  0.0000070840  4.0468065760  8.6449128250
Li  -3.4999516760  10.1089128040  8.6449128250
Mg  -0.0000000000  8.0882148220  2.8816376160
Mg  7.0045996530  4.0441074110  8.6449128250
8
scale = 2.35000
Li  3.5808215240  2.0673965670  2.9442819120
Li  10.7329111405  2.0673965670  2.9442819120
Li  7.1568663205  8.2612877365  2.9442819120
Li  3.5760520345  10.3286717780  8.8328457125
Li  0.0000072380  4.1347806320  8.8328457125
Li  -3.5760375820  10.3286717780  8.8328457125
Mg  -0.0000000000  8.2640455790  2.9442819120
Mg  7.1568735585  4.1320227895  8.8328457125
8
scale = 2.40000
Li  3.6570092160  2.1113837280  3.0069262080
Li  10.9612709520  2.1113837280  3.0069262080
Li  7.3091400720  8.4370598160  3.0069262080
Li  3.6521382480  10.5484307520  9.0207786000
Li  0.0000073920  4.2227546880  9.0207786000
Li  -3.6521234880  10.5484307520  9.0207786000
Mg  -0.0000000000  8.4398763360  3.0069262080
Mg  7.3091474640  4.2199381680  9.0207786000
8
scale = 2.45000
Li  3.7331969080  2.1553708890  3.0695705040
Li  11.1896307635  2.1553708890  3.0695705040
Li  7.4614138235  8.6128318955  3.0695705040
Li  3.7282244615  10.7681897260  9.2087114875
Li  0.0000075460  4.3107287440  9.2087114875
Li  -3.7282093940  10.7681897260  9.2087114875
Mg  -0.0000000000  8.6157070930  3.0695705040
Mg  7.4614213695  4.3078535465  9.2087114875
