8
scale = 0.75000
Li  -0.0000001950  1.2452878575  0.9309781875
Li  1.3565467500  3.5948965050  0.9309781875
Li  -1.3565478600  3.5948965050  0.9309781875
Li  2.4349978650  2.9722525800  2.7929345625
Li  1.0784509200  0.6226439325  2.7929345625
Li  3.7915455300  0.6226439325  2.7929345625
Np  -0.0000004350  2.8116936225  2.7929345625
Np  2.4349981050  1.4058468150  0.9309781875
8
scale = 0.80000
Li  -0.0000002080  1.3283070480  0.9930434000
Li  1.4469832000  3.8345562720  0.9930434000
Li  -1.4469843840  3.8345562720  0.9930434000
Li  2.5973310560  3.1704027520  2.9791302000
Li  1.1503476480  0.6641535280  2.9791302000
Li  4.0443152320  0.6641535280  2.9791302000
Np  -0.0000004640  2.9991398640  2.9791302000
Np  2.5973313120  1.4995699360  0.9930434000
8
scale = 0.85000
Li  -0.0000002210  1.4113262385  1.0551086125
Li  1.5374196500  4.0742160390  1.0551086125
Li  -1.5374209080  4.0742160390  1.0551086125
Li  2.7596642470  3.3685529240  3.1653258375
Li  1.2222443760  0.7056631235  3.1653258375
Li  4.2970849340  0.7056631235  3.1653258375
Np  -0.0000004930  3.1865861055  3.1653258375
Np  2.7596645190  1.5932930570  1.0551086125
8
scale = 0.90000
Li  -0.0000002340  1.4943454290  1.1171738250
Li  1.6278561000  4.3138758060  1.1171738250
Li  -1.6278574320  4.3138758060  1.1171738250
Li  2.9219974380  3.5667030960  3.3515214750
Li  1.2941411040  0.7471727190  3.3515214750
Li  4.5498546360  0.7471727190  3.3515214750
Np  -0.0000005220  3.3740323470  3.3515214750
Np  2.9219977260  1.6870161780  1.1171738250
8
scale = 0.95000
Li  -0.0000002470  1.5773646195  1.1792390375
Li  1.7182925500  4.5535355730  1.1792390375
Li  -1.7182939560  4.5535355730  1.1792390375
Li  3.0843306290  3.7648532680  3.5377171125
Li  1.3660378320  0.7886823145  3.5377171125
Li  4.8026243380  0.7886823145  3.5377171125
Np  -0.0000005510  3.5614785885  3.5377171125
Np  3.0843309330  1.7807392990  1.1792390375
8
scale = 1.00000
Li  -0.0000002600  1.6603838100  1.2413042500
Li  1.8087290000  4.7931953400  1.2413042500
Li  -1.8087304800  4.7931953400  1.2413042500
Li  3.2466638200  3.9630034400  3.7239127500
Li  1.4379345600  0.8301919100  3.7239127500
Li  5.0553940400  0.8301919100  3.7239127500
Np  -0.0000005800  3.7489248300  3.7239127500
Np  3.2466641400  1.8744624200  1.2413042500
8
scale = 1.05000
Li  -0.0000002730  1.7434030005  1.3033694625
Li  1.8991654500  5.0328551070  1.3033694625
Li  -1.8991670040  5.0328551070  1.3033694625
Li  3.4089970110  4.1611536120  3.9101083875
Li  1.5098312880  0.8717015055  3.9101083875
Li  5.3081637420  0.8717015055  3.9101083875
Np  -0.0000006090  3.9363710715  3.9101083875
Np  3.4089973470  1.9681855410  1.3033694625
8
scale = 1.10000
Li  -0.0000002860  1.8264221910  1.3654346750
Li  1.9896019000  5.2725148740  1.3654346750
Li  -1.9896035280  5.2725148740  1.3654346750
Li  3.5713302020  4.3593037840  4.0963040250
Li  1.5817280160  0.9132111010  4.0963040250
Li  5.5609334440  0.9132111010  4.0963040250
Np  -0.0000006380  4.1238173130  4.0963040250
Np  3.5713305540  2.0619086620  1.3654346750
8
scale = 1.15000
Li  -0.0000002990  1.9094413815  1.4274998875
Li  2.0800383500  5.5121746410  1.4274998875
Li  -2.0800400520  5.5121746410  1.4274998875
Li  3.7336633930  4.5574539560  4.2824996625
Li  1.6536247440  0.9547206965  4.2824996625
Li  5.8137031460  0.9547206965  4.2824996625
Np  -0.0000006670  4.3112635545  4.2824996625
Np  3.7336637610  2.1556317830  1.4274998875
8
scale = 1.20000
Li  -0.0000003120  1.9924605720  1.4895651000
Li  2.1704748000  5.7518344080  1.4895651000
Li  -2.1704765760  5.7518344080  1.4895651000
Li  3.8959965840  4.7556041280  4.4686953000
Li  1.7255214720  0.9962302920  4.4686953000
Li  6.0664728480  0.9962302920  4.4686953000
Np  -0.0000006960  4.4987097960  4.4686953000
Np  3.8959969680  2.2493549040  1.4895651000
8
scale = 1.25000
Li  -0.0000003250  2.0754797625  1.5516303125
Li  2.2609112500  5.9914941750  1.5516303125
Li  -2.2609131000  5.9914941750  1.5516303125
Li  4.0583297750  4.9537543000  4.6548909375
Li  1.7974182000  1.0377398875  4.6548909375
Li  6.3192425500  1.0377398875  4.6548909375
Np  -0.0000007250  4.6861560375  4.6548909375
Np  4.0583301750  2.3430780250  1.5516303125
8
scale = 1.30000
Li  -0.0000003380  2.1584989530  1.6136955250
Li  2.3513477000  6.2311539420  1.6136955250
Li  -2.3513496240  6.2311539420  1.6136955250
Li  4.2206629660  5.1519044720  4.8410865750
Li  1.8693149280  1.0792494830  4.8410865750
Li  6.5720122520  1.0792494830  4.8410865750
Np  -0.0000007540  4.8736022790  4.8410865750
Np  4.2206633820  2.4368011460  1.6136955250
8
scale = 1.35000
Li  -0.0000003510  2.2415181435  1.6757607375
Li  2.4417841500  6.4708137090  1.6757607375
Li  -2.4417861480  6.4708137090  1.6757607375
Li  4.3829961570  5.3500546440  5.0272822125
Li  1.9412116560  1.1207590785  5.0272822125
Li  6.8247819540  1.1207590785  5.0272822125
Np  -0.0000007830  5.0610485205  5.0272822125
Np  4.3829965890  2.5305242670  1.6757607375
8
scale = 1.40000
Li  -0.0000003640  2.3245373340  1.7378259500
Li  2.5322206000  6.7104734760  1.7378259500
Li  -2.5322226720  6.7104734760  1.7378259500
Li  4.5453293480  5.5482048160  5.2134778500
Li  2.0131083840  1.1622686740  5.2134778500
Li  7.0775516560  1.1622686740  5.2134778500
Np  -0.0000008120  5.2484947620  5.2134778500
Np  4.5453297960  2.6242473880  1.7378259500
8
scale = 1.45000
Li  -0.0000003770  2.4075565245  1.7998911625
Li  2.6226570500  6.9501332430  1.7998911625
Li  -2.6226591960  6.9501332430  1.7998911625
Li  4.7076625390  5.7463549880  5.3996734875
Li  2.0850051120  1.2037782695  5.3996734875
Li  7.3303213580  1.2037782695  5.3996734875
Np  -0.0000008410  5.4359410035  5.3996734875
Np  4.7076630030  2.7179705090  1.7998911625
8
scale = 1.50000
Li  -0.0000003900  2.4905757150  1.8619563750
Li  2.7130935000  7.1897930100  1.8619563750
Li  -2.7130957200  7.1897930100  1.8619563750
Li  4.8699957300  5.9445051600  5.5858691250
Li  2.1569018400  1.2452878650  5.5858691250
Li  7.5830910600  1.2452878650  5.5858691250
Np  -0.0000008700  5.6233872450  5.5858691250
Np  4.8699962100  2.8116936300  1.8619563750
8
scale = 1.55000
Li  -0.0000004030  2.5735949055  1.9240215875
Li  2.8035299500  7.4294527770  1.9240215875
Li  -2.8035322440  7.4294527770  1.9240215875
Li  5.0323289210  6.1426553320  5.7720647625
Li  2.2287985680  1.2867974605  5.7720647625
Li  7.8358607620  1.2867974605  5.7720647625
Np  -0.0000008990  5.8108334865  5.7720647625
Np  5.0323294170  2.9054167510  1.9240215875
8
scale = 1.60000
Li  -0.0000004160  2.6566140960  1.9860868000
Li  2.8939664000  7.6691125440  1.9860868000
Li  -2.8939687680  7.6691125440  1.9860868000
Li  5.1946621120  6.3408055040  5.9582604000
Li  2.3006952960  1.3283070560  5.9582604000
Li  8.0886304640  1.3283070560  5.9582604000
Np  -0.0000009280  5.9982797280  5.9582604000
Np  5.1946626240  2.9991398720  1.9860868000
8
scale = 1.65000
Li  -0.0000004290  2.7396332865  2.0481520125
Li  2.9844028500  7.9087723110  2.0481520125
Li  -2.9844052920  7.9087723110  2.0481520125
Li  5.3569953030  6.5389556760  6.1444560375
Li  2.3725920240  1.3698166515  6.1444560375
Li  8.3414001660  1.3698166515  6.1444560375
Np  -0.0000009570  6.1857259695  6.1444560375
Np  5.3569958310  3.0928629930  2.0481520125
8
scale = 1.70000
Li  -0.0000004420  2.8226524770  2.1102172250
Li  3.0748393000  8.1484320780  2.1102172250
Li  -3.0748418160  8.1484320780  2.1102172250
Li  5.5193284940  6.7371058480  6.3306516750
Li  2.4444887520  1.4113262470  6.3306516750
Li  8.5941698680  1.4113262470  6.3306516750
Np  -0.0000009860  6.3731722110  6.3306516750
Np  5.5193290380  3.1865861140  2.1102172250
8
scale = 1.75000
Li  -0.0000004550  2.9056716675  2.1722824375
Li  3.1652757500  8.3880918450  2.1722824375
Li  -3.1652783400  8.3880918450  2.1722824375
Li  5.6816616850  6.9352560200  6.5168473125
Li  2.5163854800  1.4528358425  6.5168473125
Li  8.8469395700  1.4528358425  6.5168473125
Np  -0.0000010150  6.5606184525  6.5168473125
Np  5.6816622450  3.2803092350  2.1722824375
8
scale = 1.80000
Li  -0.0000004680  2.9886908580  2.2343476500
Li  3.2557122000  8.6277516120  2.2343476500
Li  -3.2557148640  8.6277516120  2.2343476500
Li  5.8439948760  7.1334061920  6.7030429500
Li  2.5882822080  1.4943454380  6.7030429500
Li  9.0997092720  1.4943454380  6.7030429500
Np  -0.0000010440  6.7480646940  6.7030429500
Np  5.8439954520  3.3740323560  2.2343476500
8
scale = 1.85000
Li  -0.0000004810  3.0717100485  2.2964128625
Li  3.3461486500  8.8674113790  2.2964128625
Li  -3.3461513880  8.8674113790  2.2964128625
Li  6.0063280670  7.3315563640  6.8892385875
Li  2.6601789360  1.5358550335  6.8892385875
Li  9.3524789740  1.5358550335  6.8892385875
Np  -0.0000010730  6.9355109355  6.8892385875
Np  6.0063286590  3.4677554770  2.2964128625
8
scale = 1.90000
Li  -0.0000004940  3.1547292390  2.3584780750
Li  3.4365851000  9.1070711460  2.3584780750
Li  -3.4365879120  9.1070711460  2.3584780750
Li  6.1686612580  7.5297065360  7.0754342250
Li  2.7320756640  1.5773646290  7.0754342250
Li  9.6052486760  1.5773646290  7.0754342250
Np  -0.0000011020  7.1229571770  7.0754342250
Np  6.1686618660  3.5614785980  2.3584780750
8
scale = 1.95000
Li  -0.0000005070  3.2377484295  2.4205432875
Li  3.5270215500  9.3467309130  2.4205432875
Li  -3.5270244360  9.3467309130  2.4205432875
Li  6.3309944490  7.7278567080  7.2616298625
Li  2.8039723920  1.6188742245  7.2616298625
Li  9.8580183780  1.6188742245  7.2616298625
Np  -0.0000011310  7.3104034185  7.2616298625
Np  6.3309950730  3.6552017190  2.4205432875
8
scale = 2.00000
Li  -0.0000005200  3.3207676200  2.4826085000
Li  3.6174580000  9.5863906800  2.4826085000
Li  -3.6174609600  9.5863906800  2.4826085000
Li  6.4933276400  7.9260068800  7.4478255000
Li  2.8758691200  1.6603838200  7.4478255000
Li  10.1107880800  1.6603838200  7.4478255000
Np  -0.0000011600  7.4978496600  7.4478255000
Np  6.4933282800  3.7489248400  2.4826085000
8
scale = 2.05000
Li  -0.0000005330  3.4037868105  2.5446737125
Li  3.7078944500  9.8260504470  2.5446737125
Li  -3.7078974840  9.8260504470  2.5446737125
Li  6.6556608310  8.1241570520  7.6340211375
Li  2.9477658480  1.7018934155  7.6340211375
Li  10.3635577820  1.7018934155  7.6340211375
Np  -0.0000011890  7.6852959015  7.6340211375
Np  6.6556614870  3.8426479610  2.5446737125
8
scale = 2.10000
Li  -0.0000005460  3.4868060010  2.6067389250
Li  3.7983309000  10.0657102140  2.6067389250
Li  -3.7983340080  10.0657102140  2.6067389250
Li  6.8179940220  8.3223072240  7.8202167750
Li  3.0196625760  1.7434030110  7.8202167750
Li  10.6163274840  1.7434030110  7.8202167750
Np  -0.0000012180  7.8727421430  7.8202167750
Np  6.8179946940  3.9363710820  2.6067389250
8
scale = 2.15000
Li  -0.0000005590  3.5698251915  2.6688041375
Li  3.8887673500  10.3053699810  2.6688041375
Li  -3.8887705320  10.3053699810  2.6688041375
Li  6.9803272130  8.5204573960  8.0064124125
Li  3.0915593040  1.7849126065  8.0064124125
Li  10.8690971860  1.7849126065  8.0064124125
Np  -0.0000012470  8.0601883845  8.0064124125
Np  6.9803279010  4.0300942030  2.6688041375
8
scale = 2.20000
Li  -0.0000005720  3.6528443820  2.7308693500
Li  3.9792038000  10.5450297480  2.7308693500
Li  -3.9792070560  10.5450297480  2.7308693500
Li  7.1426604040  8.7186075680  8.1926080500
Li  3.1634560320  1.8264222020  8.1926080500
Li  11.1218668880  1.8264222020  8.1926080500
Np  -0.0000012760  8.2476346260  8.1926080500
Np  7.1426611080  4.1238173240  2.7308693500
8
scale = 2.25000
Li  -0.0000005850  3.7358635725  2.7929345625
Li  4.0696402500  10.7846895150  2.7929345625
Li  -4.0696435800  10.7846895150  2.7929345625
Li  7.3049935950  8.9167577400  8.3788036875
Li  3.2353527600  1.8679317975  8.3788036875
Li  11.3746365900  1.8679317975  8.3788036875
Np  -0.0000013050  8.4350808675  8.3788036875
Np  7.3049943150  4.2175404450  2.7929345625
8
scale = 2.30000
Li  -0.0000005980  3.8188827630  2.8549997750
Li  4.1600767000  11.0243492820  2.8549997750
Li  -4.1600801040  11.0243492820  2.8549997750
Li  7.4673267860  9.1149079120  8.5649993250
Li  3.3072494880  1.9094413930  8.5649993250
Li  11.6274062920  1.9094413930  8.5649993250
Np  -0.0000013340  8.6225271090  8.5649993250
Np  7.4673275220  4.3112635660  2.8549997750
8
scale = 2.35000
Li  -0.0000006110  3.9019019535  2.9170649875
Li  4.2505131500  11.2640090490  2.9170649875
Li  -4.2505166280  11.2640090490  2.9170649875
Li  7.6296599770  9.3130580840  8.7511949625
Li  3.3791462160  1.9509509885  8.7511949625
Li  11.8801759940  1.9509509885  8.7511949625
Np  -0.0000013630  8.8099733505  8.7511949625
Np  7.6296607290  4.4049866870  2.9170649875
8
scale = 2.40000
Li  -0.0000006240  3.9849211440  2.9791302000
Li  4.3409496000  11.5036688160  2.9791302000
Li  -4.3409531520  11.5036688160  2.9791302000
Li  7.7919931680  9.5112082560  8.9373906000
Li  3.4510429440  1.9924605840  8.9373906000
Li  12.1329456960  1.9924605840  8.9373906000
Np  -0.0000013920  8.9974195920  8.9373906000
Np  7.7919939360  4.4987098080  2.9791302000
8
scale = 2.45000
Li  -0.0000006370  4.0679403345  3.0411954125
Li  4.4313860500  11.7433285830  3.0411954125
Li  -4.4313896760  11.7433285830  3.0411954125
Li  7.9543263590  9.7093584280  9.1235862375
Li  3.5229396720  2.0339701795  9.1235862375
Li  12.3857153980  2.0339701795  9.1235862375
Np  -0.0000014210  9.1848658335  9.1235862375
Np  7.9543271430  4.5924329290  3.0411954125
