8
scale = 0.75000
Li  -0.0000001125  1.2330495150  0.8372476875
Li  0.9708816375  2.9146662150  0.8372476875
Li  -0.9708821775  2.9146662150  0.8372476875
Li  2.0387339550  2.2981414575  2.5117430625
Li  1.0678521975  0.6165247575  2.5117430625
Li  3.0096160125  0.6165247575  2.5117430625
Ni  -0.0000002175  2.3541273150  2.5117430625
Ni  2.0387340525  1.1770636575  0.8372476875
8
scale = 0.80000
Li  -0.0000001200  1.3152528160  0.8930642000
Li  1.0356070800  3.1089772960  0.8930642000
Li  -1.0356076560  3.1089772960  0.8930642000
Li  2.1746495520  2.4513508880  2.6791926000
Li  1.1390423440  0.6576264080  2.6791926000
Li  3.2102570800  0.6576264080  2.6791926000
Ni  -0.0000002320  2.5110691360  2.6791926000
Ni  2.1746496560  1.2555345680  0.8930642000
8
scale = 0.85000
Li  -0.0000001275  1.3974561170  0.9488807125
Li  1.1003325225  3.3032883770  0.9488807125
Li  -1.1003331345  3.3032883770  0.9488807125
Li  2.3105651490  2.6045603185  2.8466421375
Li  1.2102324905  0.6987280585  2.8466421375
Li  3.4108981475  0.6987280585  2.8466421375
Ni  -0.0000002465  2.6680109570  2.8466421375
Ni  2.3105652595  1.3340054785  0.9488807125
8
scale = 0.90000
Li  -0.0000001350  1.4796594180  1.0046972250
Li  1.1650579650  3.4975994580  1.0046972250
Li  -1.1650586130  3.4975994580  1.0046972250
Li  2.4464807460  2.7577697490  3.0140916750
Li  1.2814226370  0.7398297090  3.0140916750
Li  3.6115392150  0.7398297090  3.0140916750
Ni  -0.0000002610  2.8249527780  3.0140916750
Ni  2.4464808630  1.4124763890  1.0046972250
8
scale = 0.95000
Li  -0.0000001425  1.5618627190  1.0605137375
Li  1.2297834075  3.6919105390  1.0605137375
Li  -1.2297840915  3.6919105390  1.0605137375
Li  2.5823963430  2.9109791795  3.1815412125
Li  1.3526127835  0.7809313595  3.1815412125
Li  3.8121802825  0.7809313595  3.1815412125
Ni  -0.0000002755  2.9818945990  3.1815412125
Ni  2.5823964665  1.4909472995  1.0605137375
8
scale = 1.00000
Li  -0.0000001500  1.6440660200  1.1163302500
Li  1.2945088500  3.8862216200  1.1163302500
Li  -1.2945095700  3.8862216200  1.1163302500
Li  2.7183119400  3.0641886100  3.3489907500
Li  1.4238029300  0.8220330100  3.3489907500
Li  4.0128213500  0.8220330100  3.3489907500
Ni  -0.0000002900  3.1388364200  3.3489907500
Ni  2.7183120700  1.5694182100  1.1163302500
8
scale = 1.05000
Li  -0.0000001575  1.7262693210  1.1721467625
Li  1.3592342925  4.0805327010  1.1721467625
Li  -1.3592350485  4.0805327010  1.1721467625
Li  2.8542275370  3.2173980405  3.5164402875
Li  1.4949930765  0.8631346605  3.5164402875
Li  4.2134624175  0.8631346605  3.5164402875
Ni  -0.0000003045  3.2957782410  3.5164402875
Ni  2.8542276735  1.6478891205  1.1721467625
8
scale = 1.10000
Li  -0.0000001650  1.8084726220  1.2279632750
Li  1.4239597350  4.2748437820  1.2279632750
Li  -1.4239605270  4.2748437820  1.2279632750
Li  2.9901431340  3.3706074710  3.6838898250
Li  1.5661832230  0.9042363110  3.6838898250
Li  4.4141034850  0.9042363110  3.6838898250
Ni  -0.0000003190  3.4527200620  3.6838898250
Ni  2.9901432770  1.7263600310  1.2279632750
8
scale = 1.15000
Li  -0.0000001725  1.8906759230  1.2837797875
Li  1.4886851775  4.4691548630  1.2837797875
Li  -1.4886860055  4.4691548630  1.2837797875
Li  3.1260587310  3.5238169015  3.8513393625
Li  1.6373733695  0.9453379615  3.8513393625
Li  4.6147445525  0.9453379615  3.8513393625
Ni  -0.0000003335  3.6096618830  3.8513393625
Ni  3.1260588805  1.8048309415  1.2837797875
8
scale = 1.20000
Li  -0.0000001800  1.9728792240  1.3395963000
Li  1.5534106200  4.6634659440  1.3395963000
Li  -1.5534114840  4.6634659440  1.3395963000
Li  3.2619743280  3.6770263320  4.0187889000
Li  1.7085635160  0.9864396120  4.0187889000
Li  4.8153856200  0.9864396120  4.0187889000
Ni  -0.0000003480  3.7666037040  4.0187889000
Ni  3.2619744840  1.8833018520  1.3395963000
8
scale = 1.25000
Li  -0.0000001875  2.0550825250  1.3954128125
Li  1.6181360625  4.8577770250  1.3954128125
Li  -1.6181369625  4.8577770250  1.3954128125
Li  3.3978899250  3.8302357625  4.1862384375
Li  1.7797536625  1.0275412625  4.1862384375
Li  5.0160266875  1.0275412625  4.1862384375
Ni  -0.0000003625  3.9235455250  4.1862384375
Ni  3.3978900875  1.9617727625  1.3954128125
8
scale = 1.30000
Li  -0.0000001950  2.1372858260  1.4512293250
Li  1.6828615050  5.0520881060  1.4512293250
Li  -1.6828624410  5.0520881060  1.4512293250
Li  3.5338055220  3.9834451930  4.3536879750
Li  1.8509438090  1.0686429130  4.3536879750
Li  5.2166677550  1.0686429130  4.3536879750
Ni  -0.0000003770  4.0804873460  4.3536879750
Ni  3.5338056910  2.0402436730  1.4512293250
8
scale = 1.35000
Li  -0.0000002025  2.2194891270  1.5070458375
Li  1.7475869475  5.2463991870  1.5070458375
Li  -1.7475879195  5.2463991870  1.5070458375
Li  3.6697211190  4.1366546235  4.5211375125
Li  1.9221339555  1.1097445635  4.5211375125
Li  5.4173088225  1.1097445635  4.5211375125
Ni  -0.0000003915  4.2374291670  4.5211375125
Ni  3.6697212945  2.1187145835  1.5070458375
8
scale = 1.40000
Li  -0.0000002100  2.3016924280  1.5628623500
Li  1.8123123900  5.4407102680  1.5628623500
Li  -1.8123133980  5.4407102680  1.5628623500
Li  3.8056367160  4.2898640540  4.6885870500
Li  1.9933241020  1.1508462140  4.6885870500
Li  5.6179498900  1.1508462140  4.6885870500
Ni  -0.0000004060  4.3943709880  4.6885870500
Ni  3.8056368980  2.1971854940  1.5628623500
8
scale = 1.45000
Li  -0.0000002175  2.3838957290  1.6186788625
Li  1.8770378325  5.6350213490  1.6186788625
Li  -1.8770388765  5.6350213490  1.6186788625
Li  3.9415523130  4.4430734845  4.8560365875
Li  2.0645142485  1.1919478645  4.8560365875
Li  5.8185909575  1.1919478645  4.8560365875
Ni  -0.0000004205  4.5513128090  4.8560365875
Ni  3.9415525015  2.2756564045  1.6186788625
8
scale = 1.50000
Li  -0.0000002250  2.4660990300  1.6744953750
Li  1.9417632750  5.8293324300  1.6744953750
Li  -1.9417643550  5.8293324300  1.6744953750
Li  4.0774679100  4.5962829150  5.0234861250
Li  2.1357043950  1.2330495150  5.0234861250
Li  6.0192320250  1.2330495150  5.0234861250
Ni  -0.0000004350  4.7082546300  5.0234861250
Ni  4.0774681050  2.3541273150  1.6744953750
8
scale = 1.55000
Li  -0.0000002325  2.5483023310  1.7303118875
Li  2.0064887175  6.0236435110  1.7303118875
Li  -2.0064898335  6.0236435110  1.7303118875
Li  4.2133835070  4.7494923455  5.1909356625
Li  2.2068945415  1.2741511655  5.1909356625
Li  6.2198730925  1.2741511655  5.1909356625
Ni  -0.0000004495  4.8651964510  5.1909356625
Ni  4.2133837085  2.4325982255  1.7303118875
8
scale = 1.60000
Li  -0.0000002400  2.6305056320  1.7861284000
Li  2.0712141600  6.2179545920  1.7861284000
Li  -2.0712153120  6.2179545920  1.7861284000
Li  4.3492991040  4.9027017760  5.3583852000
Li  2.2780846880  1.3152528160  5.3583852000
Li  6.4205141600  1.3152528160  5.3583852000
Ni  -0.0000004640  5.0221382720  5.3583852000
Ni  4.3492993120  2.5110691360  1.7861284000
8
scale = 1.65000
Li  -0.0000002475  2.7127089330  1.8419449125
Li  2.1359396025  6.4122656730  1.8419449125
Li  -2.1359407905  6.4122656730  1.8419449125
Li  4.4852147010  5.0559112065  5.5258347375
Li  2.3492748345  1.3563544665  5.5258347375
Li  6.6211552275  1.3563544665  5.5258347375
Ni  -0.0000004785  5.1790800930  5.5258347375
Ni  4.4852149155  2.5895400465  1.8419449125
8
scale = 1.70000
Li  -0.0000002550  2.7949122340  1.8977614250
Li  2.2006650450  6.6065767540  1.8977614250
Li  -2.2006662690  6.6065767540  1.8977614250
Li  4.6211302980  5.2091206370  5.6932842750
Li  2.4204649810  1.3974561170  5.6932842750
Li  6.8217962950  1.3974561170  5.6932842750
Ni  -0.0000004930  5.3360219140  5.6932842750
Ni  4.6211305190  2.6680109570  1.8977614250
8
scale = 1.75000
Li  -0.0000002625  2.8771155350  1.9535779375
Li  2.2653904875  6.8008878350  1.9535779375
Li  -2.2653917475  6.8008878350  1.9535779375
Li  4.7570458950  5.3623300675  5.8607338125
Li  2.4916551275  1.4385577675  5.8607338125
Li  7.0224373625  1.4385577675  5.8607338125
Ni  -0.0000005075  5.4929637350  5.8607338125
Ni  4.7570461225  2.7464818675  1.9535779375
8
scale = 1.80000
Li  -0.0000002700  2.9593188360  2.0093944500
Li  2.3301159300  6.9951989160  2.0093944500
Li  -2.3301172260  6.9951989160  2.0093944500
Li  4.8929614920  5.5155394980  6.0281833500
Li  2.5628452740  1.4796594180  6.0281833500
Li  7.2230784300  1.4796594180  6.0281833500
Ni  -0.0000005220  5.6499055560  6.0281833500
Ni  4.8929617260  2.8249527780  2.0093944500
8
scale = 1.85000
Li  -0.0000002775  3.0415221370  2.0652109625
Li  2.3948413725  7.1895099970  2.0652109625
Li  -2.3948427045  7.1895099970  2.0652109625
Li  5.0288770890  5.6687489285  6.1956328875
Li  2.6340354205  1.5207610685  6.1956328875
Li  7.4237194975  1.5207610685  6.1956328875
Ni  -0.0000005365  5.8068473770  6.1956328875
Ni  5.0288773295  2.9034236885  2.0652109625
8
scale = 1.90000
Li  -0.0000002850  3.1237254380  2.1210274750
Li  2.4595668150  7.3838210780  2.1210274750
Li  -2.4595681830  7.3838210780  2.1210274750
Li  5.1647926860  5.8219583590  6.3630824250
Li  2.7052255670  1.5618627190  6.3630824250
Li  7.6243605650  1.5618627190  6.3630824250
Ni  -0.0000005510  5.9637891980  6.3630824250
Ni  5.1647929330  2.9818945990  2.1210274750
8
scale = 1.95000
Li  -0.0000002925  3.2059287390  2.1768439875
Li  2.5242922575  7.5781321590  2.1768439875
Li  -2.5242936615  7.5781321590  2.1768439875
Li  5.3007082830  5.9751677895  6.5305319625
Li  2.7764157135  1.6029643695  6.5305319625
Li  7.8250016325  1.6029643695  6.5305319625
Ni  -0.0000005655  6.1207310190  6.5305319625
Ni  5.3007085365  3.0603655095  2.1768439875
8
scale = 2.00000
Li  -0.0000003000  3.2881320400  2.2326605000
Li  2.5890177000  7.7724432400  2.2326605000
Li  -2.5890191400  7.7724432400  2.2326605000
Li  5.4366238800  6.1283772200  6.6979815000
Li  2.8476058600  1.6440660200  6.6979815000
Li  8.0256427000  1.6440660200  6.6979815000
Ni  -0.0000005800  6.2776728400  6.6979815000
Ni  5.4366241400  3.1388364200  2.2326605000
8
scale = 2.05000
Li  -0.0000003075  3.3703353410  2.2884770125
Li  2.6537431425  7.9667543210  2.2884770125
Li  -2.6537446185  7.9667543210  2.2884770125
Li  5.5725394770  6.2815866505  6.8654310375
Li  2.9187960065  1.6851676705  6.8654310375
Li  8.2262837675  1.6851676705  6.8654310375
Ni  -0.0000005945  6.4346146610  6.8654310375
Ni  5.5725397435  3.2173073305  2.2884770125
8
scale = 2.10000
Li  -0.0000003150  3.4525386420  2.3442935250
Li  2.7184685850  8.1610654020  2.3442935250
Li  -2.7184700970  8.1610654020  2.3442935250
Li  5.7084550740  6.4347960810  7.0328805750
Li  2.9899861530  1.7262693210  7.0328805750
Li  8.4269248350  1.7262693210  7.0328805750
Ni  -0.0000006090  6.5915564820  7.0328805750
Ni  5.7084553470  3.2957782410  2.3442935250
8
scale = 2.15000
Li  -0.0000003225  3.5347419430  2.4001100375
Li  2.7831940275  8.3553764830  2.4001100375
Li  -2.7831955755  8.3553764830  2.4001100375
Li  5.8443706710  6.5880055115  7.2003301125
Li  3.0611762995  1.7673709715  7.2003301125
Li  8.6275659025  1.7673709715  7.2003301125
Ni  -0.0000006235  6.7484983030  7.2003301125
Ni  5.8443709505  3.3742491515  2.4001100375
8
scale = 2.20000
Li  -0.0000003300  3.6169452440  2.4559265500
Li  2.8479194700  8.5496875640  2.4559265500
Li  -2.8479210540  8.5496875640  2.4559265500
Li  5.9802862680  6.7412149420  7.3677796500
Li  3.1323664460  1.8084726220  7.3677796500
Li  8.8282069700  1.8084726220  7.3677796500
Ni  -0.0000006380  6.9054401240  7.3677796500
Ni  5.9802865540  3.4527200620  2.4559265500
8
scale = 2.25000
Li  -0.0000003375  3.6991485450  2.5117430625
Li  2.9126449125  8.7439986450  2.5117430625
Li  -2.9126465325  8.7439986450  2.5117430625
Li  6.1162018650  6.8944243725  7.5352291875
Li  3.2035565925  1.8495742725  7.5352291875
Li  9.0288480375  1.8495742725  7.5352291875
Ni  -0.0000006525  7.0623819450  7.5352291875
Ni  6.1162021575  3.5311909725  2.5117430625
8
scale = 2.30000
Li  -0.0000003450  3.7813518460  2.5675595750
Li  2.9773703550  8.9383097260  2.5675595750
Li  -2.9773720110  8.9383097260  2.5675595750
Li  6.2521174620  7.0476338030  7.7026787250
Li  3.2747467390  1.8906759230  7.7026787250
Li  9.2294891050  1.8906759230  7.7026787250
Ni  -0.0000006670  7.2193237660  7.7026787250
Ni  6.2521177610  3.6096618830  2.5675595750
8
scale = 2.35000
Li  -0.0000003525  3.8635551470  2.6233760875
Li  3.0420957975  9.1326208070  2.6233760875
Li  -3.0420974895  9.1326208070  2.6233760875
Li  6.3880330590  7.2008432335  7.8701282625
Li  3.3459368855  1.9317775735  7.8701282625
Li  9.4301301725  1.9317775735  7.8701282625
Ni  -0.0000006815  7.3762655870  7.8701282625
Ni  6.3880333645  3.6881327935  2.6233760875
8
scale = 2.40000
Li  -0.0000003600  3.9457584480  2.6791926000
Li  3.1068212400  9.3269318880  2.6791926000
Li  -3.1068229680  9.3269318880  2.6791926000
Li  6.5239486560  7.3540526640  8.0375778000
Li  3.4171270320  1.9728792240  8.0375778000
Li  9.6307712400  1.9728792240  8.0375778000
Ni  -0.0000006960  7.5332074080  8.0375778000
Ni  6.5239489680  3.7666037040  2.6791926000
8
scale = 2.45000
Li  -0.0000003675  4.0279617490  2.7350091125
Li  3.1715466825  9.5212429690  2.7350091125
Li  -3.1715484465  9.5212429690  2.7350091125
Li  6.6598642530  7.5072620945  8.2050273375
Li  3.4883171785  2.0139808745  8.2050273375
Li  9.8314123075  2.0139808745  8.2050273375
Ni  -0.0000007105  7.6901492290  8.2050273375
Ni  6.6598645715  3.8450746145  2.7350091125
