4
scale = 0.75000
Li  1.8232753425  0.6381878550  -0.5720938800
Li  0.2570274600  1.9145635575  -0.5720938800
Li  1.0401514050  1.2763757025  -2.3151777225
Ni  0.0000000000  0.0000000000  0.0000000000
4
scale = 0.80000
Li  1.9448270320  0.6807337120  -0.6102334720
Li  0.2741626240  2.0422011280  -0.6102334720
Li  1.1094948320  1.3614674160  -2.4695229040
Ni  0.0000000000  0.0000000000  0.0000000000
4
scale = 0.85000
Li  2.0663787215  0.7232795690  -0.6483730640
Li  0.2912977880  2.1698386985  -0.6483730640
Li  1.1788382590  1.4465591295  -2.6238680855
Ni  0.0000000000  0.0000000000  0.0000000000
4
scale = 0.90000
Li  2.1879304110  0.7658254260  -0.6865126560
Li  0.3084329520  2.2974762690  -0.6865126560
Li  1.2481816860  1.5316508430  -2.7782132670
Ni  0.0000000000  0.0000000000  0.0000000000
4
scale = 0.95000
Li  2.3094821005  0.8083712830  -0.7246522480
Li  0.3255681160  2.4251138395  -0.7246522480
Li  1.3175251130  1.6167425565  -2.9325584485
Ni  0.0000000000  0.0000000000  0.0000000000
4
scale = 1.00000
Li  2.4310337900  0.8509171400  -0.7627918400
Li  0.3427032800  2.5527514100  -0.7627918400
Li  1.3868685400  1.7018342700  -3.0869036300
Ni  0.0000000000  0.0000000000  0.0000000000
4
scale = 1.05000
Li  2.5525854795  0.8934629970  -0.8009314320
Li  0.3598384440  2.6803889805  -0.8009314320
Li  1.4562119670  1.7869259835  -3.2412488115
Ni  0.0000000000  0.0000000000  0.0000000000
4
scale = 1.10000
Li  2.6741371690  0.9360088540  -0.8390710240
Li  0.3769736080  2.8080265510  -0.8390710240
Li  1.5255553940  1.8720176970  -3.3955939930
Ni  0.0000000000  0.0000000000  0.0000000000
4
scale = 1.15000
Li  2.7956888585  0.9785547110  -0.8772106160
Li  0.3941087720  2.9356641215  -0.8772106160
Li  1.5948988210  1.9571094105  -3.5499391745
Ni  0.0000000000  0.0000000000  0.0000000000
4
scale = 1.20000
Li  2.9172405480  1.0211005680  -0.9153502080
Li  0.4112439360  3.0633016920  -0.9153502080
Li  1.6642422480  2.0422011240  -3.7042843560
Ni  0.0000000000  0.0000000000  0.0000000000
4
scale = 1.25000
Li  3.0387922375  1.0636464250  -0.9534898000
Li  0.4283791000  3.1909392625  -0.9534898000
Li  1.7335856750  2.1272928375  -3.8586295375
Ni  0.0000000000  0.0000000000  0.0000000000
4
scale = 1.30000
Li  3.1603439270  1.1061922820  -0.9916293920
Li  0.4455142640  3.3185768330  -0.9916293920
Li  1.8029291020  2.2123845510  -4.0129747190
Ni  0.0000000000  0.0000000000  0.0000000000
4
scale = 1.35000
Li  3.2818956165  1.1487381390  -1.0297689840
Li  0.4626494280  3.4462144035  -1.0297689840
Li  1.8722725290  2.2974762645  -4.1673199005
Ni  0.0000000000  0.0000000000  0.0000000000
4
scale = 1.40000
Li  3.4034473060  1.1912839960  -1.0679085760
Li  0.4797845920  3.5738519740  -1.0679085760
Li  1.9416159560  2.3825679780  -4.3216650820
Ni  0.0000000000  0.0000000000  0.0000000000
4
scale = 1.45000
Li  3.5249989955  1.2338298530  -1.1060481680
Li  0.4969197560  3.7014895445  -1.1060481680
Li  2.0109593830  2.4676596915  -4.4760102635
Ni  0.0000000000  0.0000000000  0.0000000000
4
scale = 1.50000
Li  3.6465506850  1.2763757100  -1.1441877600
Li  0.5140549200  3.8291271150  -1.1441877600
Li  2.0803028100  2.5527514050  -4.6303554450
Ni  0.0000000000  0.0000000000  0.0000000000
4
scale = 1.55000
Li  3.7681023745  1.3189215670  -1.1823273520
Li  0.5311900840  3.9567646855  -1.1823273520
Li  2.1496462370  2.6378431185  -4.7847006265
Ni  0.0000000000  0.0000000000  0.0000000000
4
scale = 1.60000
Li  3.8896540640  1.3614674240  -1.2204669440
Li  0.5483252480  4.0844022560  -1.2204669440
Li  2.2189896640  2.7229348320  -4.9390458080
Ni  0.0000000000  0.0000000000  0.0000000000
4
scale = 1.65000
Li  4.0112057535  1.4040132810  -1.2586065360
Li  0.5654604120  4.2120398265  -1.2586065360
Li  2.2883330910  2.8080265455  -5.0933909895
Ni  0.0000000000  0.0000000000  0.0000000000
4
scale = 1.70000
Li  4.1327574430  1.4465591380  -1.2967461280
Li  0.5825955760  4.3396773970  -1.2967461280
Li  2.3576765180  2.8931182590  -5.2477361710
Ni  0.0000000000  0.0000000000  0.0000000000
4
scale = 1.75000
Li  4.2543091325  1.4891049950  -1.3348857200
Li  0.5997307400  4.4673149675  -1.3348857200
Li  2.4270199450  2.9782099725  -5.4020813525
Ni  0.0000000000  0.0000000000  0.0000000000
4
scale = 1.80000
Li  4.3758608220  1.5316508520  -1.3730253120
Li  0.6168659040  4.5949525380  -1.3730253120
Li  2.4963633720  3.0633016860  -5.5564265340
Ni  0.0000000000  0.0000000000  0.0000000000
4
scale = 1.85000
Li  4.4974125115  1.5741967090  -1.4111649040
Li  0.6340010680  4.7225901085  -1.4111649040
Li  2.5657067990  3.1483933995  -5.7107717155
Ni  0.0000000000  0.0000000000  0.0000000000
4
scale = 1.90000
Li  4.6189642010  1.6167425660  -1.4493044960
Li  0.6511362320  4.8502276790  -1.4493044960
Li  2.6350502260  3.2334851130  -5.8651168970
Ni  0.0000000000  0.0000000000  0.0000000000
4
scale = 1.95000
Li  4.7405158905  1.6592884230  -1.4874440880
Li  0.6682713960  4.9778652495  -1.4874440880
Li  2.7043936530  3.3185768265  -6.0194620785
Ni  0.0000000000  0.0000000000  0.0000000000
4
scale = 2.00000
Li  4.8620675800  1.7018342800  -1.5255836800
Li  0.6854065600  5.1055028200  -1.5255836800
Li  2.7737370800  3.4036685400  -6.1738072600
Ni  0.0000000000  0.0000000000  0.0000000000
4
scale = 2.05000
Li  4.9836192695  1.7443801370  -1.5637232720
Li  0.7025417240  5.2331403905  -1.5637232720
Li  2.8430805070  3.4887602535  -6.3281524415
Ni  0.0000000000  0.0000000000  0.0000000000
4
scale = 2.10000
Li  5.1051709590  1.7869259940  -1.6018628640
Li  0.7196768880  5.3607779610  -1.6018628640
Li  2.9124239340  3.5738519670  -6.4824976230
Ni  0.0000000000  0.0000000000  0.0000000000
4
scale = 2.15000
Li  5.2267226485  1.8294718510  -1.6400024560
Li  0.7368120520  5.4884155315  -1.6400024560
Li  2.9817673610  3.6589436805  -6.6368428045
Ni  0.0000000000  0.0000000000  0.0000000000
4
scale = 2.20000
Li  5.3482743380  1.8720177080  -1.6781420480
Li  0.7539472160  5.6160531020  -1.6781420480
Li  3.0511107880  3.7440353940  -6.7911879860
Ni  0.0000000000  0.0000000000  0.0000000000
4
scale = 2.25000
Li  5.4698260275  1.9145635650  -1.7162816400
Li  0.7710823800  5.7436906725  -1.7162816400
Li  3.1204542150  3.8291271075  -6.9455331675
Ni  0.0000000000  0.0000000000  0.0000000000
4
scale = 2.30000
Li  5.5913777170  1.9571094220  -1.7544212320
Li  0.7882175440  5.8713282430  -1.7544212320
Li  3.1897976420  3.9142188210  -7.0998783490
Ni  0.0000000000  0.0000000000  0.0000000000
4
scale = 2.35000
Li  5.7129294065  1.9996552790  -1.7925608240
Li  0.8053527080  5.9989658135  -1.7925608240
Li  3.2591410690  3.9993105345  -7.2542235305
Ni  0.0000000000  0.0000000000  0.0000000000
4
scale = 2.40000
Li  5.8344810960  2.0422011360  -1.8307004160
Li  0.8224878720  6.1266033840  -1.8307004160
Li  3.3284844960  4.0844022480  -7.4085687120
Ni  0.0000000000  0.0000000000  0.0000000000
4
scale = 2.45000
Li  5.9560327855  2.0847469930  -1.8688400080
Li  0.8396230360  6.2542409545  -1.8688400080
Li  3.3978279230  4.1694939615  -7.5629138935
Ni  0.0000000000  0.0000000000  0.0000000000
