4
scale = 0.75000
Li  2.0311326675  0.7181013900  -0.0217731300
Li  0.0124672125  2.1543013050  -0.0217731300
Li  1.0217968800  1.4361970350  -1.7844978225
Pb  0.0000000000  0.0000000000  0.0000000000
4
scale = 0.80000
Li  2.1665415120  0.7659748160  -0.0232246720
Li  0.0132983600  2.2979213920  -0.0232246720
Li  1.0899166720  1.5319435040  -1.9034643440
Pb  0.0000000000  0.0000000000  0.0000000000
4
scale = 0.85000
Li  2.3019503565  0.8138482420  -0.0246762140
Li  0.0141295075  2.4415414790  -0.0246762140
Li  1.1580364640  1.6276899730  -2.0224308655
Pb  0.0000000000  0.0000000000  0.0000000000
4
scale = 0.90000
Li  2.4373592010  0.8617216680  -0.0261277560
Li  0.0149606550  2.5851615660  -0.0261277560
Li  1.2261562560  1.7234364420  -2.1413973870
Pb  0.0000000000  0.0000000000  0.0000000000
4
scale = 0.95000
Li  2.5727680455  0.9095950940  -0.0275792980
Li  0.0157918025  2.7287816530  -0.0275792980
Li  1.2942760480  1.8191829110  -2.2603639085
Pb  0.0000000000  0.0000000000  0.0000000000
4
scale = 1.00000
Li  2.7081768900  0.9574685200  -0.0290308400
Li  0.0166229500  2.8724017400  -0.0290308400
Li  1.3623958400  1.9149293800  -2.3793304300
Pb  0.0000000000  0.0000000000  0.0000000000
4
scale = 1.05000
Li  2.8435857345  1.0053419460  -0.0304823820
Li  0.0174540975  3.0160218270  -0.0304823820
Li  1.4305156320  2.0106758490  -2.4982969515
Pb  0.0000000000  0.0000000000  0.0000000000
4
scale = 1.10000
Li  2.9789945790  1.0532153720  -0.0319339240
Li  0.0182852450  3.1596419140  -0.0319339240
Li  1.4986354240  2.1064223180  -2.6172634730
Pb  0.0000000000  0.0000000000  0.0000000000
4
scale = 1.15000
Li  3.1144034235  1.1010887980  -0.0333854660
Li  0.0191163925  3.3032620010  -0.0333854660
Li  1.5667552160  2.2021687870  -2.7362299945
Pb  0.0000000000  0.0000000000  0.0000000000
4
scale = 1.20000
Li  3.2498122680  1.1489622240  -0.0348370080
Li  0.0199475400  3.4468820880  -0.0348370080
Li  1.6348750080  2.2979152560  -2.8551965160
Pb  0.0000000000  0.0000000000  0.0000000000
4
scale = 1.25000
Li  3.3852211125  1.1968356500  -0.0362885500
Li  0.0207786875  3.5905021750  -0.0362885500
Li  1.7029948000  2.3936617250  -2.9741630375
Pb  0.0000000000  0.0000000000  0.0000000000
4
scale = 1.30000
Li  3.5206299570  1.2447090760  -0.0377400920
Li  0.0216098350  3.7341222620  -0.0377400920
Li  1.7711145920  2.4894081940  -3.0931295590
Pb  0.0000000000  0.0000000000  0.0000000000
4
scale = 1.35000
Li  3.6560388015  1.2925825020  -0.0391916340
Li  0.0224409825  3.8777423490  -0.0391916340
Li  1.8392343840  2.5851546630  -3.2120960805
Pb  0.0000000000  0.0000000000  0.0000000000
4
scale = 1.40000
Li  3.7914476460  1.3404559280  -0.0406431760
Li  0.0232721300  4.0213624360  -0.0406431760
Li  1.9073541760  2.6809011320  -3.3310626020
Pb  0.0000000000  0.0000000000  0.0000000000
4
scale = 1.45000
Li  3.9268564905  1.3883293540  -0.0420947180
Li  0.0241032775  4.1649825230  -0.0420947180
Li  1.9754739680  2.7766476010  -3.4500291235
Pb  0.0000000000  0.0000000000  0.0000000000
4
scale = 1.50000
Li  4.0622653350  1.4362027800  -0.0435462600
Li  0.0249344250  4.3086026100  -0.0435462600
Li  2.0435937600  2.8723940700  -3.5689956450
Pb  0.0000000000  0.0000000000  0.0000000000
4
scale = 1.55000
Li  4.1976741795  1.4840762060  -0.0449978020
Li  0.0257655725  4.4522226970  -0.0449978020
Li  2.1117135520  2.9681405390  -3.6879621665
Pb  0.0000000000  0.0000000000  0.0000000000
4
scale = 1.60000
Li  4.3330830240  1.5319496320  -0.0464493440
Li  0.0265967200  4.5958427840  -0.0464493440
Li  2.1798333440  3.0638870080  -3.8069286880
Pb  0.0000000000  0.0000000000  0.0000000000
4
scale = 1.65000
Li  4.4684918685  1.5798230580  -0.0479008860
Li  0.0274278675  4.7394628710  -0.0479008860
Li  2.2479531360  3.1596334770  -3.9258952095
Pb  0.0000000000  0.0000000000  0.0000000000
4
scale = 1.70000
Li  4.6039007130  1.6276964840  -0.0493524280
Li  0.0282590150  4.8830829580  -0.0493524280
Li  2.3160729280  3.2553799460  -4.0448617310
Pb  0.0000000000  0.0000000000  0.0000000000
4
scale = 1.75000
Li  4.7393095575  1.6755699100  -0.0508039700
Li  0.0290901625  5.0267030450  -0.0508039700
Li  2.3841927200  3.3511264150  -4.1638282525
Pb  0.0000000000  0.0000000000  0.0000000000
4
scale = 1.80000
Li  4.8747184020  1.7234433360  -0.0522555120
Li  0.0299213100  5.1703231320  -0.0522555120
Li  2.4523125120  3.4468728840  -4.2827947740
Pb  0.0000000000  0.0000000000  0.0000000000
4
scale = 1.85000
Li  5.0101272465  1.7713167620  -0.0537070540
Li  0.0307524575  5.3139432190  -0.0537070540
Li  2.5204323040  3.5426193530  -4.4017612955
Pb  0.0000000000  0.0000000000  0.0000000000
4
scale = 1.90000
Li  5.1455360910  1.8191901880  -0.0551585960
Li  0.0315836050  5.4575633060  -0.0551585960
Li  2.5885520960  3.6383658220  -4.5207278170
Pb  0.0000000000  0.0000000000  0.0000000000
4
scale = 1.95000
Li  5.2809449355  1.8670636140  -0.0566101380
Li  0.0324147525  5.6011833930  -0.0566101380
Li  2.6566718880  3.7341122910  -4.6396943385
Pb  0.0000000000  0.0000000000  0.0000000000
4
scale = 2.00000
Li  5.4163537800  1.9149370400  -0.0580616800
Li  0.0332459000  5.7448034800  -0.0580616800
Li  2.7247916800  3.8298587600  -4.7586608600
Pb  0.0000000000  0.0000000000  0.0000000000
4
scale = 2.05000
Li  5.5517626245  1.9628104660  -0.0595132220
Li  0.0340770475  5.8884235670  -0.0595132220
Li  2.7929114720  3.9256052290  -4.8776273815
Pb  0.0000000000  0.0000000000  0.0000000000
4
scale = 2.10000
Li  5.6871714690  2.0106838920  -0.0609647640
Li  0.0349081950  6.0320436540  -0.0609647640
Li  2.8610312640  4.0213516980  -4.9965939030
Pb  0.0000000000  0.0000000000  0.0000000000
4
scale = 2.15000
Li  5.8225803135  2.0585573180  -0.0624163060
Li  0.0357393425  6.1756637410  -0.0624163060
Li  2.9291510560  4.1170981670  -5.1155604245
Pb  0.0000000000  0.0000000000  0.0000000000
4
scale = 2.20000
Li  5.9579891580  2.1064307440  -0.0638678480
Li  0.0365704900  6.3192838280  -0.0638678480
Li  2.9972708480  4.2128446360  -5.2345269460
Pb  0.0000000000  0.0000000000  0.0000000000
4
scale = 2.25000
Li  6.0933980025  2.1543041700  -0.0653193900
Li  0.0374016375  6.4629039150  -0.0653193900
Li  3.0653906400  4.3085911050  -5.3534934675
Pb  0.0000000000  0.0000000000  0.0000000000
4
scale = 2.30000
Li  6.2288068470  2.2021775960  -0.0667709320
Li  0.0382327850  6.6065240020  -0.0667709320
Li  3.1335104320  4.4043375740  -5.4724599890
Pb  0.0000000000  0.0000000000  0.0000000000
4
scale = 2.35000
Li  6.3642156915  2.2500510220  -0.0682224740
Li  0.0390639325  6.7501440890  -0.0682224740
Li  3.2016302240  4.5000840430  -5.5914265105
Pb  0.0000000000  0.0000000000  0.0000000000
4
scale = 2.40000
Li  6.4996245360  2.2979244480  -0.0696740160
Li  0.0398950800  6.8937641760  -0.0696740160
Li  3.2697500160  4.5958305120  -5.7103930320
Pb  0.0000000000  0.0000000000  0.0000000000
4
scale = 2.45000
Li  6.6350333805  2.3457978740  -0.0711255580
Li  0.0407262275  7.0373842630  -0.0711255580
Li  3.3378698080  4.6915769810  -5.8293595535
Pb  0.0000000000  0.0000000000  0.0000000000
