4
scale = 0.75000
Li  1.1263421325  0.7964441625  1.9508817975
Li  3.3790263975  2.3893324800  5.8526454075
Li  2.2526842650  1.5928883175  3.9017636025
Pr  0.0000000000  0.0000000000  0.0000000000
4
scale = 0.80000
Li  1.2014316080  0.8495404400  2.0809405840
Li  3.6042948240  2.5486213120  6.2428217680
Li  2.4028632160  1.6990808720  4.1618811760
Pr  0.0000000000  0.0000000000  0.0000000000
4
scale = 0.85000
Li  1.2765210835  0.9026367175  2.2109993705
Li  3.8295632505  2.7079101440  6.6329981285
Li  2.5530421670  1.8052734265  4.4219987495
Pr  0.0000000000  0.0000000000  0.0000000000
4
scale = 0.90000
Li  1.3516105590  0.9557329950  2.3410581570
Li  4.0548316770  2.8671989760  7.0231744890
Li  2.7032211180  1.9114659810  4.6821163230
Pr  0.0000000000  0.0000000000  0.0000000000
4
scale = 0.95000
Li  1.4267000345  1.0088292725  2.4711169435
Li  4.2801001035  3.0264878080  7.4133508495
Li  2.8534000690  2.0176585355  4.9422338965
Pr  0.0000000000  0.0000000000  0.0000000000
4
scale = 1.00000
Li  1.5017895100  1.0619255500  2.6011757300
Li  4.5053685300  3.1857766400  7.8035272100
Li  3.0035790200  2.1238510900  5.2023514700
Pr  0.0000000000  0.0000000000  0.0000000000
4
scale = 1.05000
Li  1.5768789855  1.1150218275  2.7312345165
Li  4.7306369565  3.3450654720  8.1937035705
Li  3.1537579710  2.2300436445  5.4624690435
Pr  0.0000000000  0.0000000000  0.0000000000
4
scale = 1.10000
Li  1.6519684610  1.1681181050  2.8612933030
Li  4.9559053830  3.5043543040  8.5838799310
Li  3.3039369220  2.3362361990  5.7225866170
Pr  0.0000000000  0.0000000000  0.0000000000
4
scale = 1.15000
Li  1.7270579365  1.2212143825  2.9913520895
Li  5.1811738095  3.6636431360  8.9740562915
Li  3.4541158730  2.4424287535  5.9827041905
Pr  0.0000000000  0.0000000000  0.0000000000
4
scale = 1.20000
Li  1.8021474120  1.2743106600  3.1214108760
Li  5.4064422360  3.8229319680  9.3642326520
Li  3.6042948240  2.5486213080  6.2428217640
Pr  0.0000000000  0.0000000000  0.0000000000
4
scale = 1.25000
Li  1.8772368875  1.3274069375  3.2514696625
Li  5.6317106625  3.9822208000  9.7544090125
Li  3.7544737750  2.6548138625  6.5029393375
Pr  0.0000000000  0.0000000000  0.0000000000
4
scale = 1.30000
Li  1.9523263630  1.3805032150  3.3815284490
Li  5.8569790890  4.1415096320  10.1445853730
Li  3.9046527260  2.7610064170  6.7630569110
Pr  0.0000000000  0.0000000000  0.0000000000
4
scale = 1.35000
Li  2.0274158385  1.4335994925  3.5115872355
Li  6.0822475155  4.3007984640  10.5347617335
Li  4.0548316770  2.8671989715  7.0231744845
Pr  0.0000000000  0.0000000000  0.0000000000
4
scale = 1.40000
Li  2.1025053140  1.4866957700  3.6416460220
Li  6.3075159420  4.4600872960  10.9249380940
Li  4.2050106280  2.9733915260  7.2832920580
Pr  0.0000000000  0.0000000000  0.0000000000
4
scale = 1.45000
Li  2.1775947895  1.5397920475  3.7717048085
Li  6.5327843685  4.6193761280  11.3151144545
Li  4.3551895790  3.0795840805  7.5434096315
Pr  0.0000000000  0.0000000000  0.0000000000
4
scale = 1.50000
Li  2.2526842650  1.5928883250  3.9017635950
Li  6.7580527950  4.7786649600  11.7052908150
Li  4.5053685300  3.1857766350  7.8035272050
Pr  0.0000000000  0.0000000000  0.0000000000
4
scale = 1.55000
Li  2.3277737405  1.6459846025  4.0318223815
Li  6.9833212215  4.9379537920  12.0954671755
Li  4.6555474810  3.2919691895  8.0636447785
Pr  0.0000000000  0.0000000000  0.0000000000
4
scale = 1.60000
Li  2.4028632160  1.6990808800  4.1618811680
Li  7.2085896480  5.0972426240  12.4856435360
Li  4.8057264320  3.3981617440  8.3237623520
Pr  0.0000000000  0.0000000000  0.0000000000
4
scale = 1.65000
Li  2.4779526915  1.7521771575  4.2919399545
Li  7.4338580745  5.2565314560  12.8758198965
Li  4.9559053830  3.5043542985  8.5838799255
Pr  0.0000000000  0.0000000000  0.0000000000
4
scale = 1.70000
Li  2.5530421670  1.8052734350  4.4219987410
Li  7.6591265010  5.4158202880  13.2659962570
Li  5.1060843340  3.6105468530  8.8439974990
Pr  0.0000000000  0.0000000000  0.0000000000
4
scale = 1.75000
Li  2.6281316425  1.8583697125  4.5520575275
Li  7.8843949275  5.5751091200  13.6561726175
Li  5.2562632850  3.7167394075  9.1041150725
Pr  0.0000000000  0.0000000000  0.0000000000
4
scale = 1.80000
Li  2.7032211180  1.9114659900  4.6821163140
Li  8.1096633540  5.7343979520  14.0463489780
Li  5.4064422360  3.8229319620  9.3642326460
Pr  0.0000000000  0.0000000000  0.0000000000
4
scale = 1.85000
Li  2.7783105935  1.9645622675  4.8121751005
Li  8.3349317805  5.8936867840  14.4365253385
Li  5.5566211870  3.9291245165  9.6243502195
Pr  0.0000000000  0.0000000000  0.0000000000
4
scale = 1.90000
Li  2.8534000690  2.0176585450  4.9422338870
Li  8.5602002070  6.0529756160  14.8267016990
Li  5.7068001380  4.0353170710  9.8844677930
Pr  0.0000000000  0.0000000000  0.0000000000
4
scale = 1.95000
Li  2.9284895445  2.0707548225  5.0722926735
Li  8.7854686335  6.2122644480  15.2168780595
Li  5.8569790890  4.1415096255  10.1445853665
Pr  0.0000000000  0.0000000000  0.0000000000
4
scale = 2.00000
Li  3.0035790200  2.1238511000  5.2023514600
Li  9.0107370600  6.3715532800  15.6070544200
Li  6.0071580400  4.2477021800  10.4047029400
Pr  0.0000000000  0.0000000000  0.0000000000
4
scale = 2.05000
Li  3.0786684955  2.1769473775  5.3324102465
Li  9.2360054865  6.5308421120  15.9972307805
Li  6.1573369910  4.3538947345  10.6648205135
Pr  0.0000000000  0.0000000000  0.0000000000
4
scale = 2.10000
Li  3.1537579710  2.2300436550  5.4624690330
Li  9.4612739130  6.6901309440  16.3874071410
Li  6.3075159420  4.4600872890  10.9249380870
Pr  0.0000000000  0.0000000000  0.0000000000
4
scale = 2.15000
Li  3.2288474465  2.2831399325  5.5925278195
Li  9.6865423395  6.8494197760  16.7775835015
Li  6.4576948930  4.5662798435  11.1850556605
Pr  0.0000000000  0.0000000000  0.0000000000
4
scale = 2.20000
Li  3.3039369220  2.3362362100  5.7225866060
Li  9.9118107660  7.0087086080  17.1677598620
Li  6.6078738440  4.6724723980  11.4451732340
Pr  0.0000000000  0.0000000000  0.0000000000
4
scale = 2.25000
Li  3.3790263975  2.3893324875  5.8526453925
Li  10.1370791925  7.1679974400  17.5579362225
Li  6.7580527950  4.7786649525  11.7052908075
Pr  0.0000000000  0.0000000000  0.0000000000
4
scale = 2.30000
Li  3.4541158730  2.4424287650  5.9827041790
Li  10.3623476190  7.3272862720  17.9481125830
Li  6.9082317460  4.8848575070  11.9654083810
Pr  0.0000000000  0.0000000000  0.0000000000
4
scale = 2.35000
Li  3.5292053485  2.4955250425  6.1127629655
Li  10.5876160455  7.4865751040  18.3382889435
Li  7.0584106970  4.9910500615  12.2255259545
Pr  0.0000000000  0.0000000000  0.0000000000
4
scale = 2.40000
Li  3.6042948240  2.5486213200  6.2428217520
Li  10.8128844720  7.6458639360  18.7284653040
Li  7.2085896480  5.0972426160  12.4856435280
Pr  0.0000000000  0.0000000000  0.0000000000
4
scale = 2.45000
Li  3.6793842995  2.6017175975  6.3728805385
Li  11.0381528985  7.8051527680  19.1186416645
Li  7.3587685990  5.2034351705  12.7457611015
Pr  0.0000000000  0.0000000000  0.0000000000
