4
scale = 0.75000
Li  1.0989433650  0.7770703050  1.9034257425
Li  3.2968300950  2.3312109150  5.7102772275
Li  2.1978867300  1.5541406100  3.8068514850
Pu  0.0000000000  0.0000000000  0.0000000000
4
scale = 0.80000
Li  1.1722062560  0.8288749920  2.0303207920
Li  3.5166187680  2.4866249760  6.0909623760
Li  2.3444125120  1.6577499840  4.0606415840
Pu  0.0000000000  0.0000000000  0.0000000000
4
scale = 0.85000
Li  1.2454691470  0.8806796790  2.1572158415
Li  3.7364074410  2.6420390370  6.4716475245
Li  2.4909382940  1.7613593580  4.3144316830
Pu  0.0000000000  0.0000000000  0.0000000000
4
scale = 0.90000
Li  1.3187320380  0.9324843660  2.2841108910
Li  3.9561961140  2.7974530980  6.8523326730
Li  2.6374640760  1.8649687320  4.5682217820
Pu  0.0000000000  0.0000000000  0.0000000000
4
scale = 0.95000
Li  1.3919949290  0.9842890530  2.4110059405
Li  4.1759847870  2.9528671590  7.2330178215
Li  2.7839898580  1.9685781060  4.8220118810
Pu  0.0000000000  0.0000000000  0.0000000000
4
scale = 1.00000
Li  1.4652578200  1.0360937400  2.5379009900
Li  4.3957734600  3.1082812200  7.6137029700
Li  2.9305156400  2.0721874800  5.0758019800
Pu  0.0000000000  0.0000000000  0.0000000000
4
scale = 1.05000
Li  1.5385207110  1.0878984270  2.6647960395
Li  4.6155621330  3.2636952810  7.9943881185
Li  3.0770414220  2.1757968540  5.3295920790
Pu  0.0000000000  0.0000000000  0.0000000000
4
scale = 1.10000
Li  1.6117836020  1.1397031140  2.7916910890
Li  4.8353508060  3.4191093420  8.3750732670
Li  3.2235672040  2.2794062280  5.5833821780
Pu  0.0000000000  0.0000000000  0.0000000000
4
scale = 1.15000
Li  1.6850464930  1.1915078010  2.9185861385
Li  5.0551394790  3.5745234030  8.7557584155
Li  3.3700929860  2.3830156020  5.8371722770
Pu  0.0000000000  0.0000000000  0.0000000000
4
scale = 1.20000
Li  1.7583093840  1.2433124880  3.0454811880
Li  5.2749281520  3.7299374640  9.1364435640
Li  3.5166187680  2.4866249760  6.0909623760
Pu  0.0000000000  0.0000000000  0.0000000000
4
scale = 1.25000
Li  1.8315722750  1.2951171750  3.1723762375
Li  5.4947168250  3.8853515250  9.5171287125
Li  3.6631445500  2.5902343500  6.3447524750
Pu  0.0000000000  0.0000000000  0.0000000000
4
scale = 1.30000
Li  1.9048351660  1.3469218620  3.2992712870
Li  5.7145054980  4.0407655860  9.8978138610
Li  3.8096703320  2.6938437240  6.5985425740
Pu  0.0000000000  0.0000000000  0.0000000000
4
scale = 1.35000
Li  1.9780980570  1.3987265490  3.4261663365
Li  5.9342941710  4.1961796470  10.2784990095
Li  3.9561961140  2.7974530980  6.8523326730
Pu  0.0000000000  0.0000000000  0.0000000000
4
scale = 1.40000
Li  2.0513609480  1.4505312360  3.5530613860
Li  6.1540828440  4.3515937080  10.6591841580
Li  4.1027218960  2.9010624720  7.1061227720
Pu  0.0000000000  0.0000000000  0.0000000000
4
scale = 1.45000
Li  2.1246238390  1.5023359230  3.6799564355
Li  6.3738715170  4.5070077690  11.0398693065
Li  4.2492476780  3.0046718460  7.3599128710
Pu  0.0000000000  0.0000000000  0.0000000000
4
scale = 1.50000
Li  2.1978867300  1.5541406100  3.8068514850
Li  6.5936601900  4.6624218300  11.4205544550
Li  4.3957734600  3.1082812200  7.6137029700
Pu  0.0000000000  0.0000000000  0.0000000000
4
scale = 1.55000
Li  2.2711496210  1.6059452970  3.9337465345
Li  6.8134488630  4.8178358910  11.8012396035
Li  4.5422992420  3.2118905940  7.8674930690
Pu  0.0000000000  0.0000000000  0.0000000000
4
scale = 1.60000
Li  2.3444125120  1.6577499840  4.0606415840
Li  7.0332375360  4.9732499520  12.1819247520
Li  4.6888250240  3.3154999680  8.1212831680
Pu  0.0000000000  0.0000000000  0.0000000000
4
scale = 1.65000
Li  2.4176754030  1.7095546710  4.1875366335
Li  7.2530262090  5.1286640130  12.5626099005
Li  4.8353508060  3.4191093420  8.3750732670
Pu  0.0000000000  0.0000000000  0.0000000000
4
scale = 1.70000
Li  2.4909382940  1.7613593580  4.3144316830
Li  7.4728148820  5.2840780740  12.9432950490
Li  4.9818765880  3.5227187160  8.6288633660
Pu  0.0000000000  0.0000000000  0.0000000000
4
scale = 1.75000
Li  2.5642011850  1.8131640450  4.4413267325
Li  7.6926035550  5.4394921350  13.3239801975
Li  5.1284023700  3.6263280900  8.8826534650
Pu  0.0000000000  0.0000000000  0.0000000000
4
scale = 1.80000
Li  2.6374640760  1.8649687320  4.5682217820
Li  7.9123922280  5.5949061960  13.7046653460
Li  5.2749281520  3.7299374640  9.1364435640
Pu  0.0000000000  0.0000000000  0.0000000000
4
scale = 1.85000
Li  2.7107269670  1.9167734190  4.6951168315
Li  8.1321809010  5.7503202570  14.0853504945
Li  5.4214539340  3.8335468380  9.3902336630
Pu  0.0000000000  0.0000000000  0.0000000000
4
scale = 1.90000
Li  2.7839898580  1.9685781060  4.8220118810
Li  8.3519695740  5.9057343180  14.4660356430
Li  5.5679797160  3.9371562120  9.6440237620
Pu  0.0000000000  0.0000000000  0.0000000000
4
scale = 1.95000
Li  2.8572527490  2.0203827930  4.9489069305
Li  8.5717582470  6.0611483790  14.8467207915
Li  5.7145054980  4.0407655860  9.8978138610
Pu  0.0000000000  0.0000000000  0.0000000000
4
scale = 2.00000
Li  2.9305156400  2.0721874800  5.0758019800
Li  8.7915469200  6.2165624400  15.2274059400
Li  5.8610312800  4.1443749600  10.1516039600
Pu  0.0000000000  0.0000000000  0.0000000000
4
scale = 2.05000
Li  3.0037785310  2.1239921670  5.2026970295
Li  9.0113355930  6.3719765010  15.6080910885
Li  6.0075570620  4.2479843340  10.4053940590
Pu  0.0000000000  0.0000000000  0.0000000000
4
scale = 2.10000
Li  3.0770414220  2.1757968540  5.3295920790
Li  9.2311242660  6.5273905620  15.9887762370
Li  6.1540828440  4.3515937080  10.6591841580
Pu  0.0000000000  0.0000000000  0.0000000000
4
scale = 2.15000
Li  3.1503043130  2.2276015410  5.4564871285
Li  9.4509129390  6.6828046230  16.3694613855
Li  6.3006086260  4.4552030820  10.9129742570
Pu  0.0000000000  0.0000000000  0.0000000000
4
scale = 2.20000
Li  3.2235672040  2.2794062280  5.5833821780
Li  9.6707016120  6.8382186840  16.7501465340
Li  6.4471344080  4.5588124560  11.1667643560
Pu  0.0000000000  0.0000000000  0.0000000000
4
scale = 2.25000
Li  3.2968300950  2.3312109150  5.7102772275
Li  9.8904902850  6.9936327450  17.1308316825
Li  6.5936601900  4.6624218300  11.4205544550
Pu  0.0000000000  0.0000000000  0.0000000000
4
scale = 2.30000
Li  3.3700929860  2.3830156020  5.8371722770
Li  10.1102789580  7.1490468060  17.5115168310
Li  6.7401859720  4.7660312040  11.6743445540
Pu  0.0000000000  0.0000000000  0.0000000000
4
scale = 2.35000
Li  3.4433558770  2.4348202890  5.9640673265
Li  10.3300676310  7.3044608670  17.8922019795
Li  6.8867117540  4.8696405780  11.9281346530
Pu  0.0000000000  0.0000000000  0.0000000000
4
scale = 2.40000
Li  3.5166187680  2.4866249760  6.0909623760
Li  10.5498563040  7.4598749280  18.2728871280
Li  7.0332375360  4.9732499520  12.1819247520
Pu  0.0000000000  0.0000000000  0.0000000000
4
scale = 2.45000
Li  3.5898816590  2.5384296630  6.2178574255
Li  10.7696449770  7.6152889890  18.6535722765
Li  7.1797633180  5.0768593260  12.4357148510
Pu  0.0000000000  0.0000000000  0.0000000000
