4
scale = 0.75000
Li  1.8769884150  1.3272312300  3.2510392650
Li  0.9384942075  0.6636156150  1.6255196325
Li  2.8154826225  1.9908468450  4.8765588975
Pd  0.0000000000  0.0000000000  0.0000000000
4
scale = 0.80000
Li  2.0021209760  1.4157133120  3.4677752160
Li  1.0010604880  0.7078566560  1.7338876080
Li  3.0031814640  2.1235699680  5.2016628240
Pd  0.0000000000  0.0000000000  0.0000000000
4
scale = 0.85000
Li  2.1272535370  1.5041953940  3.6845111670
Li  1.0636267685  0.7520976970  1.8422555835
Li  3.1908803055  2.2562930910  5.5267667505
Pd  0.0000000000  0.0000000000  0.0000000000
4
scale = 0.90000
Li  2.2523860980  1.5926774760  3.9012471180
Li  1.1261930490  0.7963387380  1.9506235590
Li  3.3785791470  2.3890162140  5.8518706770
Pd  0.0000000000  0.0000000000  0.0000000000
4
scale = 0.95000
Li  2.3775186590  1.6811595580  4.1179830690
Li  1.1887593295  0.8405797790  2.0589915345
Li  3.5662779885  2.5217393370  6.1769746035
Pd  0.0000000000  0.0000000000  0.0000000000
4
scale = 1.00000
Li  2.5026512200  1.7696416400  4.3347190200
Li  1.2513256100  0.8848208200  2.1673595100
Li  3.7539768300  2.6544624600  6.5020785300
Pd  0.0000000000  0.0000000000  0.0000000000
4
scale = 1.05000
Li  2.6277837810  1.8581237220  4.5514549710
Li  1.3138918905  0.9290618610  2.2757274855
Li  3.9416756715  2.7871855830  6.8271824565
Pd  0.0000000000  0.0000000000  0.0000000000
4
scale = 1.10000
Li  2.7529163420  1.9466058040  4.7681909220
Li  1.3764581710  0.9733029020  2.3840954610
Li  4.1293745130  2.9199087060  7.1522863830
Pd  0.0000000000  0.0000000000  0.0000000000
4
scale = 1.15000
Li  2.8780489030  2.0350878860  4.9849268730
Li  1.4390244515  1.0175439430  2.4924634365
Li  4.3170733545  3.0526318290  7.4773903095
Pd  0.0000000000  0.0000000000  0.0000000000
4
scale = 1.20000
Li  3.0031814640  2.1235699680  5.2016628240
Li  1.5015907320  1.0617849840  2.6008314120
Li  4.5047721960  3.1853549520  7.8024942360
Pd  0.0000000000  0.0000000000  0.0000000000
4
scale = 1.25000
Li  3.1283140250  2.2120520500  5.4183987750
Li  1.5641570125  1.1060260250  2.7091993875
Li  4.6924710375  3.3180780750  8.1275981625
Pd  0.0000000000  0.0000000000  0.0000000000
4
scale = 1.30000
Li  3.2534465860  2.3005341320  5.6351347260
Li  1.6267232930  1.1502670660  2.8175673630
Li  4.8801698790  3.4508011980  8.4527020890
Pd  0.0000000000  0.0000000000  0.0000000000
4
scale = 1.35000
Li  3.3785791470  2.3890162140  5.8518706770
Li  1.6892895735  1.1945081070  2.9259353385
Li  5.0678687205  3.5835243210  8.7778060155
Pd  0.0000000000  0.0000000000  0.0000000000
4
scale = 1.40000
Li  3.5037117080  2.4774982960  6.0686066280
Li  1.7518558540  1.2387491480  3.0343033140
Li  5.2555675620  3.7162474440  9.1029099420
Pd  0.0000000000  0.0000000000  0.0000000000
4
scale = 1.45000
Li  3.6288442690  2.5659803780  6.2853425790
Li  1.8144221345  1.2829901890  3.1426712895
Li  5.4432664035  3.8489705670  9.4280138685
Pd  0.0000000000  0.0000000000  0.0000000000
4
scale = 1.50000
Li  3.7539768300  2.6544624600  6.5020785300
Li  1.8769884150  1.3272312300  3.2510392650
Li  5.6309652450  3.9816936900  9.7531177950
Pd  0.0000000000  0.0000000000  0.0000000000
4
scale = 1.55000
Li  3.8791093910  2.7429445420  6.7188144810
Li  1.9395546955  1.3714722710  3.3594072405
Li  5.8186640865  4.1144168130  10.0782217215
Pd  0.0000000000  0.0000000000  0.0000000000
4
scale = 1.60000
Li  4.0042419520  2.8314266240  6.9355504320
Li  2.0021209760  1.4157133120  3.4677752160
Li  6.0063629280  4.2471399360  10.4033256480
Pd  0.0000000000  0.0000000000  0.0000000000
4
scale = 1.65000
Li  4.1293745130  2.9199087060  7.1522863830
Li  2.0646872565  1.4599543530  3.5761431915
Li  6.1940617695  4.3798630590  10.7284295745
Pd  0.0000000000  0.0000000000  0.0000000000
4
scale = 1.70000
Li  4.2545070740  3.0083907880  7.3690223340
Li  2.1272535370  1.5041953940  3.6845111670
Li  6.3817606110  4.5125861820  11.0535335010
Pd  0.0000000000  0.0000000000  0.0000000000
4
scale = 1.75000
Li  4.3796396350  3.0968728700  7.5857582850
Li  2.1898198175  1.5484364350  3.7928791425
Li  6.5694594525  4.6453093050  11.3786374275
Pd  0.0000000000  0.0000000000  0.0000000000
4
scale = 1.80000
Li  4.5047721960  3.1853549520  7.8024942360
Li  2.2523860980  1.5926774760  3.9012471180
Li  6.7571582940  4.7780324280  11.7037413540
Pd  0.0000000000  0.0000000000  0.0000000000
4
scale = 1.85000
Li  4.6299047570  3.2738370340  8.0192301870
Li  2.3149523785  1.6369185170  4.0096150935
Li  6.9448571355  4.9107555510  12.0288452805
Pd  0.0000000000  0.0000000000  0.0000000000
4
scale = 1.90000
Li  4.7550373180  3.3623191160  8.2359661380
Li  2.3775186590  1.6811595580  4.1179830690
Li  7.1325559770  5.0434786740  12.3539492070
Pd  0.0000000000  0.0000000000  0.0000000000
4
scale = 1.95000
Li  4.8801698790  3.4508011980  8.4527020890
Li  2.4400849395  1.7254005990  4.2263510445
Li  7.3202548185  5.1762017970  12.6790531335
Pd  0.0000000000  0.0000000000  0.0000000000
4
scale = 2.00000
Li  5.0053024400  3.5392832800  8.6694380400
Li  2.5026512200  1.7696416400  4.3347190200
Li  7.5079536600  5.3089249200  13.0041570600
Pd  0.0000000000  0.0000000000  0.0000000000
4
scale = 2.05000
Li  5.1304350010  3.6277653620  8.8861739910
Li  2.5652175005  1.8138826810  4.4430869955
Li  7.6956525015  5.4416480430  13.3292609865
Pd  0.0000000000  0.0000000000  0.0000000000
4
scale = 2.10000
Li  5.2555675620  3.7162474440  9.1029099420
Li  2.6277837810  1.8581237220  4.5514549710
Li  7.8833513430  5.5743711660  13.6543649130
Pd  0.0000000000  0.0000000000  0.0000000000
4
scale = 2.15000
Li  5.3807001230  3.8047295260  9.3196458930
Li  2.6903500615  1.9023647630  4.6598229465
Li  8.0710501845  5.7070942890  13.9794688395
Pd  0.0000000000  0.0000000000  0.0000000000
4
scale = 2.20000
Li  5.5058326840  3.8932116080  9.5363818440
Li  2.7529163420  1.9466058040  4.7681909220
Li  8.2587490260  5.8398174120  14.3045727660
Pd  0.0000000000  0.0000000000  0.0000000000
4
scale = 2.25000
Li  5.6309652450  3.9816936900  9.7531177950
Li  2.8154826225  1.9908468450  4.8765588975
Li  8.4464478675  5.9725405350  14.6296766925
Pd  0.0000000000  0.0000000000  0.0000000000
4
scale = 2.30000
Li  5.7560978060  4.0701757720  9.9698537460
Li  2.8780489030  2.0350878860  4.9849268730
Li  8.6341467090  6.1052636580  14.9547806190
Pd  0.0000000000  0.0000000000  0.0000000000
4
scale = 2.35000
Li  5.8812303670  4.1586578540  10.1865896970
Li  2.9406151835  2.0793289270  5.0932948485
Li  8.8218455505  6.2379867810  15.2798845455
Pd  0.0000000000  0.0000000000  0.0000000000
4
scale = 2.40000
Li  6.0063629280  4.2471399360  10.4033256480
Li  3.0031814640  2.1235699680  5.2016628240
Li  9.0095443920  6.3707099040  15.6049884720
Pd  0.0000000000  0.0000000000  0.0000000000
4
scale = 2.45000
Li  6.1314954890  4.3356220180  10.6200615990
Li  3.0657477445  2.1678110090  5.3100307995
Li  9.1972432335  6.5034330270  15.9300923985
Pd  0.0000000000  0.0000000000  0.0000000000
