8
scale = 0.75000
Li  0.0000000000  0.0000000000  1.4150732850
Li  0.0000000000  0.0000000000  4.2452198625
Li  -0.0000002550  1.8269989125  3.3033573225
Li  1.5822276000  0.9134994600  0.4732107525
Li  1.5822276000  0.9134994600  2.3569358250
Li  -0.0000002550  1.8269989125  5.1870823950
P   -0.0000002550  1.8269989125  1.4150732850
P   1.5822276000  0.9134994600  4.2452198625
8
scale = 0.80000
Li  0.0000000000  0.0000000000  1.5094115040
Li  0.0000000000  0.0000000000  4.5282345200
Li  -0.0000002720  1.9487988400  3.5235811440
Li  1.6877094400  0.9743994240  0.5047581360
Li  1.6877094400  0.9743994240  2.5140648800
Li  -0.0000002720  1.9487988400  5.5328878880
P   -0.0000002720  1.9487988400  1.5094115040
P   1.6877094400  0.9743994240  4.5282345200
8
scale = 0.85000
Li  0.0000000000  0.0000000000  1.6037497230
Li  0.0000000000  0.0000000000  4.8112491775
Li  -0.0000002890  2.0705987675  3.7438049655
Li  1.7931912800  1.0352993880  0.5363055195
Li  1.7931912800  1.0352993880  2.6711939350
Li  -0.0000002890  2.0705987675  5.8786933810
P   -0.0000002890  2.0705987675  1.6037497230
P   1.7931912800  1.0352993880  4.8112491775
8
scale = 0.90000
Li  0.0000000000  0.0000000000  1.6980879420
Li  0.0000000000  0.0000000000  5.0942638350
Li  -0.0000003060  2.1923986950  3.9640287870
Li  1.8986731200  1.0961993520  0.5678529030
Li  1.8986731200  1.0961993520  2.8283229900
Li  -0.0000003060  2.1923986950  6.2244988740
P   -0.0000003060  2.1923986950  1.6980879420
P   1.8986731200  1.0961993520  5.0942638350
8
scale = 0.95000
Li  0.0000000000  0.0000000000  1.7924261610
Li  0.0000000000  0.0000000000  5.3772784925
Li  -0.0000003230  2.3141986225  4.1842526085
Li  2.0041549600  1.1570993160  0.5994002865
Li  2.0041549600  1.1570993160  2.9854520450
Li  -0.0000003230  2.3141986225  6.5703043670
P   -0.0000003230  2.3141986225  1.7924261610
P   2.0041549600  1.1570993160  5.3772784925
8
scale = 1.00000
Li  0.0000000000  0.0000000000  1.8867643800
Li  0.0000000000  0.0000000000  5.6602931500
Li  -0.0000003400  2.4359985500  4.4044764300
Li  2.1096368000  1.2179992800  0.6309476700
Li  2.1096368000  1.2179992800  3.1425811000
Li  -0.0000003400  2.4359985500  6.9161098600
P   -0.0000003400  2.4359985500  1.8867643800
P   2.1096368000  1.2179992800  5.6602931500
8
scale = 1.05000
Li  0.0000000000  0.0000000000  1.9811025990
Li  0.0000000000  0.0000000000  5.9433078075
Li  -0.0000003570  2.5577984775  4.6247002515
Li  2.2151186400  1.2788992440  0.6624950535
Li  2.2151186400  1.2788992440  3.2997101550
Li  -0.0000003570  2.5577984775  7.2619153530
P   -0.0000003570  2.5577984775  1.9811025990
P   2.2151186400  1.2788992440  5.9433078075
8
scale = 1.10000
Li  0.0000000000  0.0000000000  2.0754408180
Li  0.0000000000  0.0000000000  6.2263224650
Li  -0.0000003740  2.6795984050  4.8449240730
Li  2.3206004800  1.3397992080  0.6940424370
Li  2.3206004800  1.3397992080  3.4568392100
Li  -0.0000003740  2.6795984050  7.6077208460
P   -0.0000003740  2.6795984050  2.0754408180
P   2.3206004800  1.3397992080  6.2263224650
8
scale = 1.15000
Li  0.0000000000  0.0000000000  2.1697790370
Li  0.0000000000  0.0000000000  6.5093371225
Li  -0.0000003910  2.8013983325  5.0651478945
Li  2.4260823200  1.4006991720  0.7255898205
Li  2.4260823200  1.4006991720  3.6139682650
Li  -0.0000003910  2.8013983325  7.9535263390
P   -0.0000003910  2.8013983325  2.1697790370
P   2.4260823200  1.4006991720  6.5093371225
8
scale = 1.20000
Li  0.0000000000  0.0000000000  2.2641172560
Li  0.0000000000  0.0000000000  6.7923517800
Li  -0.0000004080  2.9231982600  5.2853717160
Li  2.5315641600  1.4615991360  0.7571372040
Li  2.5315641600  1.4615991360  3.7710973200
Li  -0.0000004080  2.9231982600  8.2993318320
P   -0.0000004080  2.9231982600  2.2641172560
P   2.5315641600  1.4615991360  6.7923517800
8
scale = 1.25000
Li  0.0000000000  0.0000000000  2.3584554750
Li  0.0000000000  0.0000000000  7.0753664375
Li  -0.0000004250  3.0449981875  5.5055955375
Li  2.6370460000  1.5224991000  0.7886845875
Li  2.6370460000  1.5224991000  3.9282263750
Li  -0.0000004250  3.0449981875  8.6451373250
P   -0.0000004250  3.0449981875  2.3584554750
P   2.6370460000  1.5224991000  7.0753664375
8
scale = 1.30000
Li  0.0000000000  0.0000000000  2.4527936940
Li  0.0000000000  0.0000000000  7.3583810950
Li  -0.0000004420  3.1667981150  5.7258193590
Li  2.7425278400  1.5833990640  0.8202319710
Li  2.7425278400  1.5833990640  4.0853554300
Li  -0.0000004420  3.1667981150  8.9909428180
P   -0.0000004420  3.1667981150  2.4527936940
P   2.7425278400  1.5833990640  7.3583810950
8
scale = 1.35000
Li  0.0000000000  0.0000000000  2.5471319130
Li  0.0000000000  0.0000000000  7.6413957525
Li  -0.0000004590  3.2885980425  5.9460431805
Li  2.8480096800  1.6442990280  0.8517793545
Li  2.8480096800  1.6442990280  4.2424844850
Li  -0.0000004590  3.2885980425  9.3367483110
P   -0.0000004590  3.2885980425  2.5471319130
P   2.8480096800  1.6442990280  7.6413957525
8
scale = 1.40000
Li  0.0000000000  0.0000000000  2.6414701320
Li  0.0000000000  0.0000000000  7.9244104100
Li  -0.0000004760  3.4103979700  6.1662670020
Li  2.9534915200  1.7051989920  0.8833267380
Li  2.9534915200  1.7051989920  4.3996135400
Li  -0.0000004760  3.4103979700  9.6825538040
P   -0.0000004760  3.4103979700  2.6414701320
P   2.9534915200  1.7051989920  7.9244104100
8
scale = 1.45000
Li  0.0000000000  0.0000000000  2.7358083510
Li  0.0000000000  0.0000000000  8.2074250675
Li  -0.0000004930  3.5321978975  6.3864908235
Li  3.0589733600  1.7660989560  0.9148741215
Li  3.0589733600  1.7660989560  4.5567425950
Li  -0.0000004930  3.5321978975  10.0283592970
P   -0.0000004930  3.5321978975  2.7358083510
P   3.0589733600  1.7660989560  8.2074250675
8
scale = 1.50000
Li  0.0000000000  0.0000000000  2.8301465700
Li  0.0000000000  0.0000000000  8.4904397250
Li  -0.0000005100  3.6539978250  6.6067146450
Li  3.1644552000  1.8269989200  0.9464215050
Li  3.1644552000  1.8269989200  4.7138716500
Li  -0.0000005100  3.6539978250  10.3741647900
P   -0.0000005100  3.6539978250  2.8301465700
P   3.1644552000  1.8269989200  8.4904397250
8
scale = 1.55000
Li  0.0000000000  0.0000000000  2.9244847890
Li  0.0000000000  0.0000000000  8.7734543825
Li  -0.0000005270  3.7757977525  6.8269384665
Li  3.2699370400  1.8878988840  0.9779688885
Li  3.2699370400  1.8878988840  4.8710007050
Li  -0.0000005270  3.7757977525  10.7199702830
P   -0.0000005270  3.7757977525  2.9244847890
P   3.2699370400  1.8878988840  8.7734543825
8
scale = 1.60000
Li  0.0000000000  0.0000000000  3.0188230080
Li  0.0000000000  0.0000000000  9.0564690400
Li  -0.0000005440  3.8975976800  7.0471622880
Li  3.3754188800  1.9487988480  1.0095162720
Li  3.3754188800  1.9487988480  5.0281297600
Li  -0.0000005440  3.8975976800  11.0657757760
P   -0.0000005440  3.8975976800  3.0188230080
P   3.3754188800  1.9487988480  9.0564690400
8
scale = 1.65000
Li  0.0000000000  0.0000000000  3.1131612270
Li  0.0000000000  0.0000000000  9.3394836975
Li  -0.0000005610  4.0193976075  7.2673861095
Li  3.4809007200  2.0096988120  1.0410636555
Li  3.4809007200  2.0096988120  5.1852588150
Li  -0.0000005610  4.0193976075  11.4115812690
P   -0.0000005610  4.0193976075  3.1131612270
P   3.4809007200  2.0096988120  9.3394836975
8
scale = 1.70000
Li  0.0000000000  0.0000000000  3.2074994460
Li  0.0000000000  0.0000000000  9.6224983550
Li  -0.0000005780  4.1411975350  7.4876099310
Li  3.5863825600  2.0705987760  1.0726110390
Li  3.5863825600  2.0705987760  5.3423878700
Li  -0.0000005780  4.1411975350  11.7573867620
P   -0.0000005780  4.1411975350  3.2074994460
P   3.5863825600  2.0705987760  9.6224983550
8
scale = 1.75000
Li  0.0000000000  0.0000000000  3.3018376650
Li  0.0000000000  0.0000000000  9.9055130125
Li  -0.0000005950  4.2629974625  7.7078337525
Li  3.6918644000  2.1314987400  1.1041584225
Li  3.6918644000  2.1314987400  5.4995169250
Li  -0.0000005950  4.2629974625  12.1031922550
P   -0.0000005950  4.2629974625  3.3018376650
P   3.6918644000  2.1314987400  9.9055130125
8
scale = 1.80000
Li  0.0000000000  0.0000000000  3.3961758840
Li  0.0000000000  0.0000000000  10.1885276700
Li  -0.0000006120  4.3847973900  7.9280575740
Li  3.7973462400  2.1923987040  1.1357058060
Li  3.7973462400  2.1923987040  5.6566459800
Li  -0.0000006120  4.3847973900  12.4489977480
P   -0.0000006120  4.3847973900  3.3961758840
P   3.7973462400  2.1923987040  10.1885276700
8
scale = 1.85000
Li  0.0000000000  0.0000000000  3.4905141030
Li  0.0000000000  0.0000000000  10.4715423275
Li  -0.0000006290  4.5065973175  8.1482813955
Li  3.9028280800  2.2532986680  1.1672531895
Li  3.9028280800  2.2532986680  5.8137750350
Li  -0.0000006290  4.5065973175  12.7948032410
P   -0.0000006290  4.5065973175  3.4905141030
P   3.9028280800  2.2532986680  10.4715423275
8
scale = 1.90000
Li  0.0000000000  0.0000000000  3.5848523220
Li  0.0000000000  0.0000000000  10.7545569850
Li  -0.0000006460  4.6283972450  8.3685052170
Li  4.0083099200  2.3141986320  1.1988005730
Li  4.0083099200  2.3141986320  5.9709040900
Li  -0.0000006460  4.6283972450  13.1406087340
P   -0.0000006460  4.6283972450  3.5848523220
P   4.0083099200  2.3141986320  10.7545569850
8
scale = 1.95000
Li  0.0000000000  0.0000000000  3.6791905410
Li  0.0000000000  0.0000000000  11.0375716425
Li  -0.0000006630  4.7501971725  8.5887290385
Li  4.1137917600  2.3750985960  1.2303479565
Li  4.1137917600  2.3750985960  6.1280331450
Li  -0.0000006630  4.7501971725  13.4864142270
P   -0.0000006630  4.7501971725  3.6791905410
P   4.1137917600  2.3750985960  11.0375716425
8
scale = 2.00000
Li  0.0000000000  0.0000000000  3.7735287600
Li  0.0000000000  0.0000000000  11.3205863000
Li  -0.0000006800  4.8719971000  8.8089528600
Li  4.2192736000  2.4359985600  1.2618953400
Li  4.2192736000  2.4359985600  6.2851622000
Li  -0.0000006800  4.8719971000  13.8322197200
P   -0.0000006800  4.8719971000  3.7735287600
P   4.2192736000  2.4359985600  11.3205863000
8
scale = 2.05000
Li  0.0000000000  0.0000000000  3.8678669790
Li  0.0000000000  0.0000000000  11.6036009575
Li  -0.0000006970  4.9937970275  9.0291766815
Li  4.3247554400  2.4968985240  1.2934427235
Li  4.3247554400  2.4968985240  6.4422912550
Li  -0.0000006970  4.9937970275  14.1780252130
P   -0.0000006970  4.9937970275  3.8678669790
P   4.3247554400  2.4968985240  11.6036009575
8
scale = 2.10000
Li  0.0000000000  0.0000000000  3.9622051980
Li  0.0000000000  0.0000000000  11.8866156150
Li  -0.0000007140  5.1155969550  9.2494005030
Li  4.4302372800  2.5577984880  1.3249901070
Li  4.4302372800  2.5577984880  6.5994203100
Li  -0.0000007140  5.1155969550  14.5238307060
P   -0.0000007140  5.1155969550  3.9622051980
P   4.4302372800  2.5577984880  11.8866156150
8
scale = 2.15000
Li  0.0000000000  0.0000000000  4.0565434170
Li  0.0000000000  0.0000000000  12.1696302725
Li  -0.0000007310  5.2373968825  9.4696243245
Li  4.5357191200  2.6186984520  1.3565374905
Li  4.5357191200  2.6186984520  6.7565493650
Li  -0.0000007310  5.2373968825  14.8696361990
P   -0.0000007310  5.2373968825  4.0565434170
P   4.5357191200  2.6186984520  12.1696302725
8
scale = 2.20000
Li  0.0000000000  0.0000000000  4.1508816360
Li  0.0000000000  0.0000000000  12.4526449300
Li  -0.0000007480  5.3591968100  9.6898481460
Li  4.6412009600  2.6795984160  1.3880848740
Li  4.6412009600  2.6795984160  6.9136784200
Li  -0.0000007480  5.3591968100  15.2154416920
P   -0.0000007480  5.3591968100  4.1508816360
P   4.6412009600  2.6795984160  12.4526449300
8
scale = 2.25000
Li  0.0000000000  0.0000000000  4.2452198550
Li  0.0000000000  0.0000000000  12.7356595875
Li  -0.0000007650  5.4809967375  9.9100719675
Li  4.7466828000  2.7404983800  1.4196322575
Li  4.7466828000  2.7404983800  7.0708074750
Li  -0.0000007650  5.4809967375  15.5612471850
P   -0.0000007650  5.4809967375  4.2452198550
P   4.7466828000  2.7404983800  12.7356595875
8
scale = 2.30000
Li  0.0000000000  0.0000000000  4.3395580740
Li  0.0000000000  0.0000000000  13.0186742450
Li  -0.0000007820  5.6027966650  10.1302957890
Li  4.8521646400  2.8013983440  1.4511796410
Li  4.8521646400  2.8013983440  7.2279365300
Li  -0.0000007820  5.6027966650  15.9070526780
P   -0.0000007820  5.6027966650  4.3395580740
P   4.8521646400  2.8013983440  13.0186742450
8
scale = 2.35000
Li  0.0000000000  0.0000000000  4.4338962930
Li  0.0000000000  0.0000000000  13.3016889025
Li  -0.0000007990  5.7245965925  10.3505196105
Li  4.9576464800  2.8622983080  1.4827270245
Li  4.9576464800  2.8622983080  7.3850655850
Li  -0.0000007990  5.7245965925  16.2528581710
P   -0.0000007990  5.7245965925  4.4338962930
P   4.9576464800  2.8622983080  13.3016889025
8
scale = 2.40000
Li  0.0000000000  0.0000000000  4.5282345120
Li  0.0000000000  0.0000000000  13.5847035600
Li  -0.0000008160  5.8463965200  10.5707434320
Li  5.0631283200  2.9231982720  1.5142744080
Li  5.0631283200  2.9231982720  7.5421946400
Li  -0.0000008160  5.8463965200  16.5986636640
P   -0.0000008160  5.8463965200  4.5282345120
P   5.0631283200  2.9231982720  13.5847035600
8
scale = 2.45000
Li  0.0000000000  0.0000000000  4.6225727310
Li  0.0000000000  0.0000000000  13.8677182175
Li  -0.0000008330  5.9681964475  10.7909672535
Li  5.1686101600  2.9840982360  1.5458217915
Li  5.1686101600  2.9840982360  7.6993236950
Li  -0.0000008330  5.9681964475  16.9444691570
P   -0.0000008330  5.9681964475  4.6225727310
P   5.1686101600  2.9840982360  13.8677182175
