8
scale = 0.75000
Li  0.0000018000  1.2069428925  0.8319250650
Li  0.9401766450  2.8353738000  0.8319250650
Li  -0.9401735925  2.8353738000  0.8319250650
Li  1.9854170400  2.2319040900  2.4957751875
Li  1.0452422025  0.6034731825  2.4957751875
Li  2.9255924325  0.6034731825  2.4957751875
Rh  -0.0000003900  2.2925646525  2.4957751875
Rh  1.9854192300  1.1462823300  0.8319250650
8
scale = 0.80000
Li  0.0000019200  1.2874057520  0.8873867360
Li  1.0028550880  3.0243987200  0.8873867360
Li  -1.0028518320  3.0243987200  0.8873867360
Li  2.1177781760  2.3806976960  2.6621602000
Li  1.1149250160  0.6437047280  2.6621602000
Li  3.1206319280  0.6437047280  2.6621602000
Rh  -0.0000004160  2.4454022960  2.6621602000
Rh  2.1177805120  1.2227011520  0.8873867360
8
scale = 0.85000
Li  0.0000020400  1.3678686115  0.9428484070
Li  1.0655335310  3.2134236400  0.9428484070
Li  -1.0655300715  3.2134236400  0.9428484070
Li  2.2501393120  2.5294913020  2.8285452125
Li  1.1846078295  0.6839362735  2.8285452125
Li  3.3156714235  0.6839362735  2.8285452125
Rh  -0.0000004420  2.5982399395  2.8285452125
Rh  2.2501417940  1.2991199740  0.9428484070
8
scale = 0.90000
Li  0.0000021600  1.4483314710  0.9983100780
Li  1.1282119740  3.4024485600  0.9983100780
Li  -1.1282083110  3.4024485600  0.9983100780
Li  2.3825004480  2.6782849080  2.9949302250
Li  1.2542906430  0.7241678190  2.9949302250
Li  3.5107109190  0.7241678190  2.9949302250
Rh  -0.0000004680  2.7510775830  2.9949302250
Rh  2.3825030760  1.3755387960  0.9983100780
8
scale = 0.95000
Li  0.0000022800  1.5287943305  1.0537717490
Li  1.1908904170  3.5914734800  1.0537717490
Li  -1.1908865505  3.5914734800  1.0537717490
Li  2.5148615840  2.8270785140  3.1613152375
Li  1.3239734565  0.7643993645  3.1613152375
Li  3.7057504145  0.7643993645  3.1613152375
Rh  -0.0000004940  2.9039152265  3.1613152375
Rh  2.5148643580  1.4519576180  1.0537717490
8
scale = 1.00000
Li  0.0000024000  1.6092571900  1.1092334200
Li  1.2535688600  3.7804984000  1.1092334200
Li  -1.2535647900  3.7804984000  1.1092334200
Li  2.6472227200  2.9758721200  3.3277002500
Li  1.3936562700  0.8046309100  3.3277002500
Li  3.9007899100  0.8046309100  3.3277002500
Rh  -0.0000005200  3.0567528700  3.3277002500
Rh  2.6472256400  1.5283764400  1.1092334200
8
scale = 1.05000
Li  0.0000025200  1.6897200495  1.1646950910
Li  1.3162473030  3.9695233200  1.1646950910
Li  -1.3162430295  3.9695233200  1.1646950910
Li  2.7795838560  3.1246657260  3.4940852625
Li  1.4633390835  0.8448624555  3.4940852625
Li  4.0958294055  0.8448624555  3.4940852625
Rh  -0.0000005460  3.2095905135  3.4940852625
Rh  2.7795869220  1.6047952620  1.1646950910
8
scale = 1.10000
Li  0.0000026400  1.7701829090  1.2201567620
Li  1.3789257460  4.1585482400  1.2201567620
Li  -1.3789212690  4.1585482400  1.2201567620
Li  2.9119449920  3.2734593320  3.6604702750
Li  1.5330218970  0.8850940010  3.6604702750
Li  4.2908689010  0.8850940010  3.6604702750
Rh  -0.0000005720  3.3624281570  3.6604702750
Rh  2.9119482040  1.6812140840  1.2201567620
8
scale = 1.15000
Li  0.0000027600  1.8506457685  1.2756184330
Li  1.4416041890  4.3475731600  1.2756184330
Li  -1.4415995085  4.3475731600  1.2756184330
Li  3.0443061280  3.4222529380  3.8268552875
Li  1.6027047105  0.9253255465  3.8268552875
Li  4.4859083965  0.9253255465  3.8268552875
Rh  -0.0000005980  3.5152658005  3.8268552875
Rh  3.0443094860  1.7576329060  1.2756184330
8
scale = 1.20000
Li  0.0000028800  1.9311086280  1.3310801040
Li  1.5042826320  4.5365980800  1.3310801040
Li  -1.5042777480  4.5365980800  1.3310801040
Li  3.1766672640  3.5710465440  3.9932403000
Li  1.6723875240  0.9655570920  3.9932403000
Li  4.6809478920  0.9655570920  3.9932403000
Rh  -0.0000006240  3.6681034440  3.9932403000
Rh  3.1766707680  1.8340517280  1.3310801040
8
scale = 1.25000
Li  0.0000030000  2.0115714875  1.3865417750
Li  1.5669610750  4.7256230000  1.3865417750
Li  -1.5669559875  4.7256230000  1.3865417750
Li  3.3090284000  3.7198401500  4.1596253125
Li  1.7420703375  1.0057886375  4.1596253125
Li  4.8759873875  1.0057886375  4.1596253125
Rh  -0.0000006500  3.8209410875  4.1596253125
Rh  3.3090320500  1.9104705500  1.3865417750
8
scale = 1.30000
Li  0.0000031200  2.0920343470  1.4420034460
Li  1.6296395180  4.9146479200  1.4420034460
Li  -1.6296342270  4.9146479200  1.4420034460
Li  3.4413895360  3.8686337560  4.3260103250
Li  1.8117531510  1.0460201830  4.3260103250
Li  5.0710268830  1.0460201830  4.3260103250
Rh  -0.0000006760  3.9737787310  4.3260103250
Rh  3.4413933320  1.9868893720  1.4420034460
8
scale = 1.35000
Li  0.0000032400  2.1724972065  1.4974651170
Li  1.6923179610  5.1036728400  1.4974651170
Li  -1.6923124665  5.1036728400  1.4974651170
Li  3.5737506720  4.0174273620  4.4923953375
Li  1.8814359645  1.0862517285  4.4923953375
Li  5.2660663785  1.0862517285  4.4923953375
Rh  -0.0000007020  4.1266163745  4.4923953375
Rh  3.5737546140  2.0633081940  1.4974651170
8
scale = 1.40000
Li  0.0000033600  2.2529600660  1.5529267880
Li  1.7549964040  5.2926977600  1.5529267880
Li  -1.7549907060  5.2926977600  1.5529267880
Li  3.7061118080  4.1662209680  4.6587803500
Li  1.9511187780  1.1264832740  4.6587803500
Li  5.4611058740  1.1264832740  4.6587803500
Rh  -0.0000007280  4.2794540180  4.6587803500
Rh  3.7061158960  2.1397270160  1.5529267880
8
scale = 1.45000
Li  0.0000034800  2.3334229255  1.6083884590
Li  1.8176748470  5.4817226800  1.6083884590
Li  -1.8176689455  5.4817226800  1.6083884590
Li  3.8384729440  4.3150145740  4.8251653625
Li  2.0208015915  1.1667148195  4.8251653625
Li  5.6561453695  1.1667148195  4.8251653625
Rh  -0.0000007540  4.4322916615  4.8251653625
Rh  3.8384771780  2.2161458380  1.6083884590
8
scale = 1.50000
Li  0.0000036000  2.4138857850  1.6638501300
Li  1.8803532900  5.6707476000  1.6638501300
Li  -1.8803471850  5.6707476000  1.6638501300
Li  3.9708340800  4.4638081800  4.9915503750
Li  2.0904844050  1.2069463650  4.9915503750
Li  5.8511848650  1.2069463650  4.9915503750
Rh  -0.0000007800  4.5851293050  4.9915503750
Rh  3.9708384600  2.2925646600  1.6638501300
8
scale = 1.55000
Li  0.0000037200  2.4943486445  1.7193118010
Li  1.9430317330  5.8597725200  1.7193118010
Li  -1.9430254245  5.8597725200  1.7193118010
Li  4.1031952160  4.6126017860  5.1579353875
Li  2.1601672185  1.2471779105  5.1579353875
Li  6.0462243605  1.2471779105  5.1579353875
Rh  -0.0000008060  4.7379669485  5.1579353875
Rh  4.1031997420  2.3689834820  1.7193118010
8
scale = 1.60000
Li  0.0000038400  2.5748115040  1.7747734720
Li  2.0057101760  6.0487974400  1.7747734720
Li  -2.0057036640  6.0487974400  1.7747734720
Li  4.2355563520  4.7613953920  5.3243204000
Li  2.2298500320  1.2874094560  5.3243204000
Li  6.2412638560  1.2874094560  5.3243204000
Rh  -0.0000008320  4.8908045920  5.3243204000
Rh  4.2355610240  2.4454023040  1.7747734720
8
scale = 1.65000
Li  0.0000039600  2.6552743635  1.8302351430
Li  2.0683886190  6.2378223600  1.8302351430
Li  -2.0683819035  6.2378223600  1.8302351430
Li  4.3679174880  4.9101889980  5.4907054125
Li  2.2995328455  1.3276410015  5.4907054125
Li  6.4363033515  1.3276410015  5.4907054125
Rh  -0.0000008580  5.0436422355  5.4907054125
Rh  4.3679223060  2.5218211260  1.8302351430
8
scale = 1.70000
Li  0.0000040800  2.7357372230  1.8856968140
Li  2.1310670620  6.4268472800  1.8856968140
Li  -2.1310601430  6.4268472800  1.8856968140
Li  4.5002786240  5.0589826040  5.6570904250
Li  2.3692156590  1.3678725470  5.6570904250
Li  6.6313428470  1.3678725470  5.6570904250
Rh  -0.0000008840  5.1964798790  5.6570904250
Rh  4.5002835880  2.5982399480  1.8856968140
8
scale = 1.75000
Li  0.0000042000  2.8162000825  1.9411584850
Li  2.1937455050  6.6158722000  1.9411584850
Li  -2.1937383825  6.6158722000  1.9411584850
Li  4.6326397600  5.2077762100  5.8234754375
Li  2.4388984725  1.4081040925  5.8234754375
Li  6.8263823425  1.4081040925  5.8234754375
Rh  -0.0000009100  5.3493175225  5.8234754375
Rh  4.6326448700  2.6746587700  1.9411584850
8
scale = 1.80000
Li  0.0000043200  2.8966629420  1.9966201560
Li  2.2564239480  6.8048971200  1.9966201560
Li  -2.2564166220  6.8048971200  1.9966201560
Li  4.7650008960  5.3565698160  5.9898604500
Li  2.5085812860  1.4483356380  5.9898604500
Li  7.0214218380  1.4483356380  5.9898604500
Rh  -0.0000009360  5.5021551660  5.9898604500
Rh  4.7650061520  2.7510775920  1.9966201560
8
scale = 1.85000
Li  0.0000044400  2.9771258015  2.0520818270
Li  2.3191023910  6.9939220400  2.0520818270
Li  -2.3190948615  6.9939220400  2.0520818270
Li  4.8973620320  5.5053634220  6.1562454625
Li  2.5782640995  1.4885671835  6.1562454625
Li  7.2164613335  1.4885671835  6.1562454625
Rh  -0.0000009620  5.6549928095  6.1562454625
Rh  4.8973674340  2.8274964140  2.0520818270
8
scale = 1.90000
Li  0.0000045600  3.0575886610  2.1075434980
Li  2.3817808340  7.1829469600  2.1075434980
Li  -2.3817731010  7.1829469600  2.1075434980
Li  5.0297231680  5.6541570280  6.3226304750
Li  2.6479469130  1.5287987290  6.3226304750
Li  7.4115008290  1.5287987290  6.3226304750
Rh  -0.0000009880  5.8078304530  6.3226304750
Rh  5.0297287160  2.9039152360  2.1075434980
8
scale = 1.95000
Li  0.0000046800  3.1380515205  2.1630051690
Li  2.4444592770  7.3719718800  2.1630051690
Li  -2.4444513405  7.3719718800  2.1630051690
Li  5.1620843040  5.8029506340  6.4890154875
Li  2.7176297265  1.5690302745  6.4890154875
Li  7.6065403245  1.5690302745  6.4890154875
Rh  -0.0000010140  5.9606680965  6.4890154875
Rh  5.1620899980  2.9803340580  2.1630051690
8
scale = 2.00000
Li  0.0000048000  3.2185143800  2.2184668400
Li  2.5071377200  7.5609968000  2.2184668400
Li  -2.5071295800  7.5609968000  2.2184668400
Li  5.2944454400  5.9517442400  6.6554005000
Li  2.7873125400  1.6092618200  6.6554005000
Li  7.8015798200  1.6092618200  6.6554005000
Rh  -0.0000010400  6.1135057400  6.6554005000
Rh  5.2944512800  3.0567528800  2.2184668400
8
scale = 2.05000
Li  0.0000049200  3.2989772395  2.2739285110
Li  2.5698161630  7.7500217200  2.2739285110
Li  -2.5698078195  7.7500217200  2.2739285110
Li  5.4268065760  6.1005378460  6.8217855125
Li  2.8569953535  1.6494933655  6.8217855125
Li  7.9966193155  1.6494933655  6.8217855125
Rh  -0.0000010660  6.2663433835  6.8217855125
Rh  5.4268125620  3.1331717020  2.2739285110
8
scale = 2.10000
Li  0.0000050400  3.3794400990  2.3293901820
Li  2.6324946060  7.9390466400  2.3293901820
Li  -2.6324860590  7.9390466400  2.3293901820
Li  5.5591677120  6.2493314520  6.9881705250
Li  2.9266781670  1.6897249110  6.9881705250
Li  8.1916588110  1.6897249110  6.9881705250
Rh  -0.0000010920  6.4191810270  6.9881705250
Rh  5.5591738440  3.2095905240  2.3293901820
8
scale = 2.15000
Li  0.0000051600  3.4599029585  2.3848518530
Li  2.6951730490  8.1280715600  2.3848518530
Li  -2.6951642985  8.1280715600  2.3848518530
Li  5.6915288480  6.3981250580  7.1545555375
Li  2.9963609805  1.7299564565  7.1545555375
Li  8.3866983065  1.7299564565  7.1545555375
Rh  -0.0000011180  6.5720186705  7.1545555375
Rh  5.6915351260  3.2860093460  2.3848518530
8
scale = 2.20000
Li  0.0000052800  3.5403658180  2.4403135240
Li  2.7578514920  8.3170964800  2.4403135240
Li  -2.7578425380  8.3170964800  2.4403135240
Li  5.8238899840  6.5469186640  7.3209405500
Li  3.0660437940  1.7701880020  7.3209405500
Li  8.5817378020  1.7701880020  7.3209405500
Rh  -0.0000011440  6.7248563140  7.3209405500
Rh  5.8238964080  3.3624281680  2.4403135240
8
scale = 2.25000
Li  0.0000054000  3.6208286775  2.4957751950
Li  2.8205299350  8.5061214000  2.4957751950
Li  -2.8205207775  8.5061214000  2.4957751950
Li  5.9562511200  6.6957122700  7.4873255625
Li  3.1357266075  1.8104195475  7.4873255625
Li  8.7767772975  1.8104195475  7.4873255625
Rh  -0.0000011700  6.8776939575  7.4873255625
Rh  5.9562576900  3.4388469900  2.4957751950
8
scale = 2.30000
Li  0.0000055200  3.7012915370  2.5512368660
Li  2.8832083780  8.6951463200  2.5512368660
Li  -2.8831990170  8.6951463200  2.5512368660
Li  6.0886122560  6.8445058760  7.6537105750
Li  3.2054094210  1.8506510930  7.6537105750
Li  8.9718167930  1.8506510930  7.6537105750
Rh  -0.0000011960  7.0305316010  7.6537105750
Rh  6.0886189720  3.5152658120  2.5512368660
8
scale = 2.35000
Li  0.0000056400  3.7817543965  2.6066985370
Li  2.9458868210  8.8841712400  2.6066985370
Li  -2.9458772565  8.8841712400  2.6066985370
Li  6.2209733920  6.9932994820  7.8200955875
Li  3.2750922345  1.8908826385  7.8200955875
Li  9.1668562885  1.8908826385  7.8200955875
Rh  -0.0000012220  7.1833692445  7.8200955875
Rh  6.2209802540  3.5916846340  2.6066985370
8
scale = 2.40000
Li  0.0000057600  3.8622172560  2.6621602080
Li  3.0085652640  9.0731961600  2.6621602080
Li  -3.0085554960  9.0731961600  2.6621602080
Li  6.3533345280  7.1420930880  7.9864806000
Li  3.3447750480  1.9311141840  7.9864806000
Li  9.3618957840  1.9311141840  7.9864806000
Rh  -0.0000012480  7.3362068880  7.9864806000
Rh  6.3533415360  3.6681034560  2.6621602080
8
scale = 2.45000
Li  0.0000058800  3.9426801155  2.7176218790
Li  3.0712437070  9.2622210800  2.7176218790
Li  -3.0712337355  9.2622210800  2.7176218790
Li  6.4856956640  7.2908866940  8.1528656125
Li  3.4144578615  1.9713457295  8.1528656125
Li  9.5569352795  1.9713457295  8.1528656125
Rh  -0.0000012740  7.4890445315  8.1528656125
Rh  6.4857028180  3.7445222780  2.7176218790
