8
scale = 0.75000
Li  0.0000005025  2.0231731125  5.6832882750
Li  1.7521198500  1.0115865600  2.5696035900
Li  0.0000000000  0.0000000000  1.5568423425
Li  0.0000000000  0.0000000000  4.6705270200
Li  0.0000005025  2.0231731125  3.6577657725
Li  1.7521198500  1.0115865600  0.5440810875
Sb  1.7521198500  1.0115865600  4.6705270200
Sb  0.0000005025  2.0231731125  1.5568423425
8
scale = 0.80000
Li  0.0000005360  2.1580513200  6.0621741600
Li  1.8689278400  1.0790256640  2.7409104960
Li  0.0000000000  0.0000000000  1.6606318320
Li  0.0000000000  0.0000000000  4.9818954880
Li  0.0000005360  2.1580513200  3.9016168240
Li  1.8689278400  1.0790256640  0.5803531600
Sb  1.8689278400  1.0790256640  4.9818954880
Sb  0.0000005360  2.1580513200  1.6606318320
8
scale = 0.85000
Li  0.0000005695  2.2929295275  6.4410600450
Li  1.9857358300  1.1464647680  2.9122174020
Li  0.0000000000  0.0000000000  1.7644213215
Li  0.0000000000  0.0000000000  5.2932639560
Li  0.0000005695  2.2929295275  4.1454678755
Li  1.9857358300  1.1464647680  0.6166252325
Sb  1.9857358300  1.1464647680  5.2932639560
Sb  0.0000005695  2.2929295275  1.7644213215
8
scale = 0.90000
Li  0.0000006030  2.4278077350  6.8199459300
Li  2.1025438200  1.2139038720  3.0835243080
Li  0.0000000000  0.0000000000  1.8682108110
Li  0.0000000000  0.0000000000  5.6046324240
Li  0.0000006030  2.4278077350  4.3893189270
Li  2.1025438200  1.2139038720  0.6528973050
Sb  2.1025438200  1.2139038720  5.6046324240
Sb  0.0000006030  2.4278077350  1.8682108110
8
scale = 0.95000
Li  0.0000006365  2.5626859425  7.1988318150
Li  2.2193518100  1.2813429760  3.2548312140
Li  0.0000000000  0.0000000000  1.9720003005
Li  0.0000000000  0.0000000000  5.9160008920
Li  0.0000006365  2.5626859425  4.6331699785
Li  2.2193518100  1.2813429760  0.6891693775
Sb  2.2193518100  1.2813429760  5.9160008920
Sb  0.0000006365  2.5626859425  1.9720003005
8
scale = 1.00000
Li  0.0000006700  2.6975641500  7.5777177000
Li  2.3361598000  1.3487820800  3.4261381200
Li  0.0000000000  0.0000000000  2.0757897900
Li  0.0000000000  0.0000000000  6.2273693600
Li  0.0000006700  2.6975641500  4.8770210300
Li  2.3361598000  1.3487820800  0.7254414500
Sb  2.3361598000  1.3487820800  6.2273693600
Sb  0.0000006700  2.6975641500  2.0757897900
8
scale = 1.05000
Li  0.0000007035  2.8324423575  7.9566035850
Li  2.4529677900  1.4162211840  3.5974450260
Li  0.0000000000  0.0000000000  2.1795792795
Li  0.0000000000  0.0000000000  6.5387378280
Li  0.0000007035  2.8324423575  5.1208720815
Li  2.4529677900  1.4162211840  0.7617135225
Sb  2.4529677900  1.4162211840  6.5387378280
Sb  0.0000007035  2.8324423575  2.1795792795
8
scale = 1.10000
Li  0.0000007370  2.9673205650  8.3354894700
Li  2.5697757800  1.4836602880  3.7687519320
Li  0.0000000000  0.0000000000  2.2833687690
Li  0.0000000000  0.0000000000  6.8501062960
Li  0.0000007370  2.9673205650  5.3647231330
Li  2.5697757800  1.4836602880  0.7979855950
Sb  2.5697757800  1.4836602880  6.8501062960
Sb  0.0000007370  2.9673205650  2.2833687690
8
scale = 1.15000
Li  0.0000007705  3.1021987725  8.7143753550
Li  2.6865837700  1.5510993920  3.9400588380
Li  0.0000000000  0.0000000000  2.3871582585
Li  0.0000000000  0.0000000000  7.1614747640
Li  0.0000007705  3.1021987725  5.6085741845
Li  2.6865837700  1.5510993920  0.8342576675
Sb  2.6865837700  1.5510993920  7.1614747640
Sb  0.0000007705  3.1021987725  2.3871582585
8
scale = 1.20000
Li  0.0000008040  3.2370769800  9.0932612400
Li  2.8033917600  1.6185384960  4.1113657440
Li  0.0000000000  0.0000000000  2.4909477480
Li  0.0000000000  0.0000000000  7.4728432320
Li  0.0000008040  3.2370769800  5.8524252360
Li  2.8033917600  1.6185384960  0.8705297400
Sb  2.8033917600  1.6185384960  7.4728432320
Sb  0.0000008040  3.2370769800  2.4909477480
8
scale = 1.25000
Li  0.0000008375  3.3719551875  9.4721471250
Li  2.9201997500  1.6859776000  4.2826726500
Li  0.0000000000  0.0000000000  2.5947372375
Li  0.0000000000  0.0000000000  7.7842117000
Li  0.0000008375  3.3719551875  6.0962762875
Li  2.9201997500  1.6859776000  0.9068018125
Sb  2.9201997500  1.6859776000  7.7842117000
Sb  0.0000008375  3.3719551875  2.5947372375
8
scale = 1.30000
Li  0.0000008710  3.5068333950  9.8510330100
Li  3.0370077400  1.7534167040  4.4539795560
Li  0.0000000000  0.0000000000  2.6985267270
Li  0.0000000000  0.0000000000  8.0955801680
Li  0.0000008710  3.5068333950  6.3401273390
Li  3.0370077400  1.7534167040  0.9430738850
Sb  3.0370077400  1.7534167040  8.0955801680
Sb  0.0000008710  3.5068333950  2.6985267270
8
scale = 1.35000
Li  0.0000009045  3.6417116025  10.2299188950
Li  3.1538157300  1.8208558080  4.6252864620
Li  0.0000000000  0.0000000000  2.8023162165
Li  0.0000000000  0.0000000000  8.4069486360
Li  0.0000009045  3.6417116025  6.5839783905
Li  3.1538157300  1.8208558080  0.9793459575
Sb  3.1538157300  1.8208558080  8.4069486360
Sb  0.0000009045  3.6417116025  2.8023162165
8
scale = 1.40000
Li  0.0000009380  3.7765898100  10.6088047800
Li  3.2706237200  1.8882949120  4.7965933680
Li  0.0000000000  0.0000000000  2.9061057060
Li  0.0000000000  0.0000000000  8.7183171040
Li  0.0000009380  3.7765898100  6.8278294420
Li  3.2706237200  1.8882949120  1.0156180300
Sb  3.2706237200  1.8882949120  8.7183171040
Sb  0.0000009380  3.7765898100  2.9061057060
8
scale = 1.45000
Li  0.0000009715  3.9114680175  10.9876906650
Li  3.3874317100  1.9557340160  4.9679002740
Li  0.0000000000  0.0000000000  3.0098951955
Li  0.0000000000  0.0000000000  9.0296855720
Li  0.0000009715  3.9114680175  7.0716804935
Li  3.3874317100  1.9557340160  1.0518901025
Sb  3.3874317100  1.9557340160  9.0296855720
Sb  0.0000009715  3.9114680175  3.0098951955
8
scale = 1.50000
Li  0.0000010050  4.0463462250  11.3665765500
Li  3.5042397000  2.0231731200  5.1392071800
Li  0.0000000000  0.0000000000  3.1136846850
Li  0.0000000000  0.0000000000  9.3410540400
Li  0.0000010050  4.0463462250  7.3155315450
Li  3.5042397000  2.0231731200  1.0881621750
Sb  3.5042397000  2.0231731200  9.3410540400
Sb  0.0000010050  4.0463462250  3.1136846850
8
scale = 1.55000
Li  0.0000010385  4.1812244325  11.7454624350
Li  3.6210476900  2.0906122240  5.3105140860
Li  0.0000000000  0.0000000000  3.2174741745
Li  0.0000000000  0.0000000000  9.6524225080
Li  0.0000010385  4.1812244325  7.5593825965
Li  3.6210476900  2.0906122240  1.1244342475
Sb  3.6210476900  2.0906122240  9.6524225080
Sb  0.0000010385  4.1812244325  3.2174741745
8
scale = 1.60000
Li  0.0000010720  4.3161026400  12.1243483200
Li  3.7378556800  2.1580513280  5.4818209920
Li  0.0000000000  0.0000000000  3.3212636640
Li  0.0000000000  0.0000000000  9.9637909760
Li  0.0000010720  4.3161026400  7.8032336480
Li  3.7378556800  2.1580513280  1.1607063200
Sb  3.7378556800  2.1580513280  9.9637909760
Sb  0.0000010720  4.3161026400  3.3212636640
8
scale = 1.65000
Li  0.0000011055  4.4509808475  12.5032342050
Li  3.8546636700  2.2254904320  5.6531278980
Li  0.0000000000  0.0000000000  3.4250531535
Li  0.0000000000  0.0000000000  10.2751594440
Li  0.0000011055  4.4509808475  8.0470846995
Li  3.8546636700  2.2254904320  1.1969783925
Sb  3.8546636700  2.2254904320  10.2751594440
Sb  0.0000011055  4.4509808475  3.4250531535
8
scale = 1.70000
Li  0.0000011390  4.5858590550  12.8821200900
Li  3.9714716600  2.2929295360  5.8244348040
Li  0.0000000000  0.0000000000  3.5288426430
Li  0.0000000000  0.0000000000  10.5865279120
Li  0.0000011390  4.5858590550  8.2909357510
Li  3.9714716600  2.2929295360  1.2332504650
Sb  3.9714716600  2.2929295360  10.5865279120
Sb  0.0000011390  4.5858590550  3.5288426430
8
scale = 1.75000
Li  0.0000011725  4.7207372625  13.2610059750
Li  4.0882796500  2.3603686400  5.9957417100
Li  0.0000000000  0.0000000000  3.6326321325
Li  0.0000000000  0.0000000000  10.8978963800
Li  0.0000011725  4.7207372625  8.5347868025
Li  4.0882796500  2.3603686400  1.2695225375
Sb  4.0882796500  2.3603686400  10.8978963800
Sb  0.0000011725  4.7207372625  3.6326321325
8
scale = 1.80000
Li  0.0000012060  4.8556154700  13.6398918600
Li  4.2050876400  2.4278077440  6.1670486160
Li  0.0000000000  0.0000000000  3.7364216220
Li  0.0000000000  0.0000000000  11.2092648480
Li  0.0000012060  4.8556154700  8.7786378540
Li  4.2050876400  2.4278077440  1.3057946100
Sb  4.2050876400  2.4278077440  11.2092648480
Sb  0.0000012060  4.8556154700  3.7364216220
8
scale = 1.85000
Li  0.0000012395  4.9904936775  14.0187777450
Li  4.3218956300  2.4952468480  6.3383555220
Li  0.0000000000  0.0000000000  3.8402111115
Li  0.0000000000  0.0000000000  11.5206333160
Li  0.0000012395  4.9904936775  9.0224889055
Li  4.3218956300  2.4952468480  1.3420666825
Sb  4.3218956300  2.4952468480  11.5206333160
Sb  0.0000012395  4.9904936775  3.8402111115
8
scale = 1.90000
Li  0.0000012730  5.1253718850  14.3976636300
Li  4.4387036200  2.5626859520  6.5096624280
Li  0.0000000000  0.0000000000  3.9440006010
Li  0.0000000000  0.0000000000  11.8320017840
Li  0.0000012730  5.1253718850  9.2663399570
Li  4.4387036200  2.5626859520  1.3783387550
Sb  4.4387036200  2.5626859520  11.8320017840
Sb  0.0000012730  5.1253718850  3.9440006010
8
scale = 1.95000
Li  0.0000013065  5.2602500925  14.7765495150
Li  4.5555116100  2.6301250560  6.6809693340
Li  0.0000000000  0.0000000000  4.0477900905
Li  0.0000000000  0.0000000000  12.1433702520
Li  0.0000013065  5.2602500925  9.5101910085
Li  4.5555116100  2.6301250560  1.4146108275
Sb  4.5555116100  2.6301250560  12.1433702520
Sb  0.0000013065  5.2602500925  4.0477900905
8
scale = 2.00000
Li  0.0000013400  5.3951283000  15.1554354000
Li  4.6723196000  2.6975641600  6.8522762400
Li  0.0000000000  0.0000000000  4.1515795800
Li  0.0000000000  0.0000000000  12.4547387200
Li  0.0000013400  5.3951283000  9.7540420600
Li  4.6723196000  2.6975641600  1.4508829000
Sb  4.6723196000  2.6975641600  12.4547387200
Sb  0.0000013400  5.3951283000  4.1515795800
8
scale = 2.05000
Li  0.0000013735  5.5300065075  15.5343212850
Li  4.7891275900  2.7650032640  7.0235831460
Li  0.0000000000  0.0000000000  4.2553690695
Li  0.0000000000  0.0000000000  12.7661071880
Li  0.0000013735  5.5300065075  9.9978931115
Li  4.7891275900  2.7650032640  1.4871549725
Sb  4.7891275900  2.7650032640  12.7661071880
Sb  0.0000013735  5.5300065075  4.2553690695
8
scale = 2.10000
Li  0.0000014070  5.6648847150  15.9132071700
Li  4.9059355800  2.8324423680  7.1948900520
Li  0.0000000000  0.0000000000  4.3591585590
Li  0.0000000000  0.0000000000  13.0774756560
Li  0.0000014070  5.6648847150  10.2417441630
Li  4.9059355800  2.8324423680  1.5234270450
Sb  4.9059355800  2.8324423680  13.0774756560
Sb  0.0000014070  5.6648847150  4.3591585590
8
scale = 2.15000
Li  0.0000014405  5.7997629225  16.2920930550
Li  5.0227435700  2.8998814720  7.3661969580
Li  0.0000000000  0.0000000000  4.4629480485
Li  0.0000000000  0.0000000000  13.3888441240
Li  0.0000014405  5.7997629225  10.4855952145
Li  5.0227435700  2.8998814720  1.5596991175
Sb  5.0227435700  2.8998814720  13.3888441240
Sb  0.0000014405  5.7997629225  4.4629480485
8
scale = 2.20000
Li  0.0000014740  5.9346411300  16.6709789400
Li  5.1395515600  2.9673205760  7.5375038640
Li  0.0000000000  0.0000000000  4.5667375380
Li  0.0000000000  0.0000000000  13.7002125920
Li  0.0000014740  5.9346411300  10.7294462660
Li  5.1395515600  2.9673205760  1.5959711900
Sb  5.1395515600  2.9673205760  13.7002125920
Sb  0.0000014740  5.9346411300  4.5667375380
8
scale = 2.25000
Li  0.0000015075  6.0695193375  17.0498648250
Li  5.2563595500  3.0347596800  7.7088107700
Li  0.0000000000  0.0000000000  4.6705270275
Li  0.0000000000  0.0000000000  14.0115810600
Li  0.0000015075  6.0695193375  10.9732973175
Li  5.2563595500  3.0347596800  1.6322432625
Sb  5.2563595500  3.0347596800  14.0115810600
Sb  0.0000015075  6.0695193375  4.6705270275
8
scale = 2.30000
Li  0.0000015410  6.2043975450  17.4287507100
Li  5.3731675400  3.1021987840  7.8801176760
Li  0.0000000000  0.0000000000  4.7743165170
Li  0.0000000000  0.0000000000  14.3229495280
Li  0.0000015410  6.2043975450  11.2171483690
Li  5.3731675400  3.1021987840  1.6685153350
Sb  5.3731675400  3.1021987840  14.3229495280
Sb  0.0000015410  6.2043975450  4.7743165170
8
scale = 2.35000
Li  0.0000015745  6.3392757525  17.8076365950
Li  5.4899755300  3.1696378880  8.0514245820
Li  0.0000000000  0.0000000000  4.8781060065
Li  0.0000000000  0.0000000000  14.6343179960
Li  0.0000015745  6.3392757525  11.4609994205
Li  5.4899755300  3.1696378880  1.7047874075
Sb  5.4899755300  3.1696378880  14.6343179960
Sb  0.0000015745  6.3392757525  4.8781060065
8
scale = 2.40000
Li  0.0000016080  6.4741539600  18.1865224800
Li  5.6067835200  3.2370769920  8.2227314880
Li  0.0000000000  0.0000000000  4.9818954960
Li  0.0000000000  0.0000000000  14.9456864640
Li  0.0000016080  6.4741539600  11.7048504720
Li  5.6067835200  3.2370769920  1.7410594800
Sb  5.6067835200  3.2370769920  14.9456864640
Sb  0.0000016080  6.4741539600  4.9818954960
8
scale = 2.45000
Li  0.0000016415  6.6090321675  18.5654083650
Li  5.7235915100  3.3045160960  8.3940383940
Li  0.0000000000  0.0000000000  5.0856849855
Li  0.0000000000  0.0000000000  15.2570549320
Li  0.0000016415  6.6090321675  11.9487015235
Li  5.7235915100  3.3045160960  1.7773315525
Sb  5.7235915100  3.3045160960  15.2570549320
Sb  0.0000016415  6.6090321675  5.0856849855
