4
scale = 0.75000
Li  2.0039652000  1.4170172925  3.4709687325
Li  1.0019826000  0.7085086500  1.7354843625
Li  3.0059478000  2.1255259425  5.2064530950
Sb  0.0000000000  0.0000000000  0.0000000000
4
scale = 0.80000
Li  2.1375628800  1.5114851120  3.7023666480
Li  1.0687814400  0.7557425600  1.8511833200
Li  3.2063443200  2.2672276720  5.5535499680
Sb  0.0000000000  0.0000000000  0.0000000000
4
scale = 0.85000
Li  2.2711605600  1.6059529315  3.9337645635
Li  1.1355802800  0.8029764700  1.9668822775
Li  3.4067408400  2.4089294015  5.9006468410
Sb  0.0000000000  0.0000000000  0.0000000000
4
scale = 0.90000
Li  2.4047582400  1.7004207510  4.1651624790
Li  1.2023791200  0.8502103800  2.0825812350
Li  3.6071373600  2.5506311310  6.2477437140
Sb  0.0000000000  0.0000000000  0.0000000000
4
scale = 0.95000
Li  2.5383559200  1.7948885705  4.3965603945
Li  1.2691779600  0.8974442900  2.1982801925
Li  3.8075338800  2.6923328605  6.5948405870
Sb  0.0000000000  0.0000000000  0.0000000000
4
scale = 1.00000
Li  2.6719536000  1.8893563900  4.6279583100
Li  1.3359768000  0.9446782000  2.3139791500
Li  4.0079304000  2.8340345900  6.9419374600
Sb  0.0000000000  0.0000000000  0.0000000000
4
scale = 1.05000
Li  2.8055512800  1.9838242095  4.8593562255
Li  1.4027756400  0.9919121100  2.4296781075
Li  4.2083269200  2.9757363195  7.2890343330
Sb  0.0000000000  0.0000000000  0.0000000000
4
scale = 1.10000
Li  2.9391489600  2.0782920290  5.0907541410
Li  1.4695744800  1.0391460200  2.5453770650
Li  4.4087234400  3.1174380490  7.6361312060
Sb  0.0000000000  0.0000000000  0.0000000000
4
scale = 1.15000
Li  3.0727466400  2.1727598485  5.3221520565
Li  1.5363733200  1.0863799300  2.6610760225
Li  4.6091199600  3.2591397785  7.9832280790
Sb  0.0000000000  0.0000000000  0.0000000000
4
scale = 1.20000
Li  3.2063443200  2.2672276680  5.5535499720
Li  1.6031721600  1.1336138400  2.7767749800
Li  4.8095164800  3.4008415080  8.3303249520
Sb  0.0000000000  0.0000000000  0.0000000000
4
scale = 1.25000
Li  3.3399420000  2.3616954875  5.7849478875
Li  1.6699710000  1.1808477500  2.8924739375
Li  5.0099130000  3.5425432375  8.6774218250
Sb  0.0000000000  0.0000000000  0.0000000000
4
scale = 1.30000
Li  3.4735396800  2.4561633070  6.0163458030
Li  1.7367698400  1.2280816600  3.0081728950
Li  5.2103095200  3.6842449670  9.0245186980
Sb  0.0000000000  0.0000000000  0.0000000000
4
scale = 1.35000
Li  3.6071373600  2.5506311265  6.2477437185
Li  1.8035686800  1.2753155700  3.1238718525
Li  5.4107060400  3.8259466965  9.3716155710
Sb  0.0000000000  0.0000000000  0.0000000000
4
scale = 1.40000
Li  3.7407350400  2.6450989460  6.4791416340
Li  1.8703675200  1.3225494800  3.2395708100
Li  5.6111025600  3.9676484260  9.7187124440
Sb  0.0000000000  0.0000000000  0.0000000000
4
scale = 1.45000
Li  3.8743327200  2.7395667655  6.7105395495
Li  1.9371663600  1.3697833900  3.3552697675
Li  5.8114990800  4.1093501555  10.0658093170
Sb  0.0000000000  0.0000000000  0.0000000000
4
scale = 1.50000
Li  4.0079304000  2.8340345850  6.9419374650
Li  2.0039652000  1.4170173000  3.4709687250
Li  6.0118956000  4.2510518850  10.4129061900
Sb  0.0000000000  0.0000000000  0.0000000000
4
scale = 1.55000
Li  4.1415280800  2.9285024045  7.1733353805
Li  2.0707640400  1.4642512100  3.5866676825
Li  6.2122921200  4.3927536145  10.7600030630
Sb  0.0000000000  0.0000000000  0.0000000000
4
scale = 1.60000
Li  4.2751257600  3.0229702240  7.4047332960
Li  2.1375628800  1.5114851200  3.7023666400
Li  6.4126886400  4.5344553440  11.1070999360
Sb  0.0000000000  0.0000000000  0.0000000000
4
scale = 1.65000
Li  4.4087234400  3.1174380435  7.6361312115
Li  2.2043617200  1.5587190300  3.8180655975
Li  6.6130851600  4.6761570735  11.4541968090
Sb  0.0000000000  0.0000000000  0.0000000000
4
scale = 1.70000
Li  4.5423211200  3.2119058630  7.8675291270
Li  2.2711605600  1.6059529400  3.9337645550
Li  6.8134816800  4.8178588030  11.8012936820
Sb  0.0000000000  0.0000000000  0.0000000000
4
scale = 1.75000
Li  4.6759188000  3.3063736825  8.0989270425
Li  2.3379594000  1.6531868500  4.0494635125
Li  7.0138782000  4.9595605325  12.1483905550
Sb  0.0000000000  0.0000000000  0.0000000000
4
scale = 1.80000
Li  4.8095164800  3.4008415020  8.3303249580
Li  2.4047582400  1.7004207600  4.1651624700
Li  7.2142747200  5.1012622620  12.4954874280
Sb  0.0000000000  0.0000000000  0.0000000000
4
scale = 1.85000
Li  4.9431141600  3.4953093215  8.5617228735
Li  2.4715570800  1.7476546700  4.2808614275
Li  7.4146712400  5.2429639915  12.8425843010
Sb  0.0000000000  0.0000000000  0.0000000000
4
scale = 1.90000
Li  5.0767118400  3.5897771410  8.7931207890
Li  2.5383559200  1.7948885800  4.3965603850
Li  7.6150677600  5.3846657210  13.1896811740
Sb  0.0000000000  0.0000000000  0.0000000000
4
scale = 1.95000
Li  5.2103095200  3.6842449605  9.0245187045
Li  2.6051547600  1.8421224900  4.5122593425
Li  7.8154642800  5.5263674505  13.5367780470
Sb  0.0000000000  0.0000000000  0.0000000000
4
scale = 2.00000
Li  5.3439072000  3.7787127800  9.2559166200
Li  2.6719536000  1.8893564000  4.6279583000
Li  8.0158608000  5.6680691800  13.8838749200
Sb  0.0000000000  0.0000000000  0.0000000000
4
scale = 2.05000
Li  5.4775048800  3.8731805995  9.4873145355
Li  2.7387524400  1.9365903100  4.7436572575
Li  8.2162573200  5.8097709095  14.2309717930
Sb  0.0000000000  0.0000000000  0.0000000000
4
scale = 2.10000
Li  5.6111025600  3.9676484190  9.7187124510
Li  2.8055512800  1.9838242200  4.8593562150
Li  8.4166538400  5.9514726390  14.5780686660
Sb  0.0000000000  0.0000000000  0.0000000000
4
scale = 2.15000
Li  5.7447002400  4.0621162385  9.9501103665
Li  2.8723501200  2.0310581300  4.9750551725
Li  8.6170503600  6.0931743685  14.9251655390
Sb  0.0000000000  0.0000000000  0.0000000000
4
scale = 2.20000
Li  5.8782979200  4.1565840580  10.1815082820
Li  2.9391489600  2.0782920400  5.0907541300
Li  8.8174468800  6.2348760980  15.2722624120
Sb  0.0000000000  0.0000000000  0.0000000000
4
scale = 2.25000
Li  6.0118956000  4.2510518775  10.4129061975
Li  3.0059478000  2.1255259500  5.2064530875
Li  9.0178434000  6.3765778275  15.6193592850
Sb  0.0000000000  0.0000000000  0.0000000000
4
scale = 2.30000
Li  6.1454932800  4.3455196970  10.6443041130
Li  3.0727466400  2.1727598600  5.3221520450
Li  9.2182399200  6.5182795570  15.9664561580
Sb  0.0000000000  0.0000000000  0.0000000000
4
scale = 2.35000
Li  6.2790909600  4.4399875165  10.8757020285
Li  3.1395454800  2.2199937700  5.4378510025
Li  9.4186364400  6.6599812865  16.3135530310
Sb  0.0000000000  0.0000000000  0.0000000000
4
scale = 2.40000
Li  6.4126886400  4.5344553360  11.1070999440
Li  3.2063443200  2.2672276800  5.5535499600
Li  9.6190329600  6.8016830160  16.6606499040
Sb  0.0000000000  0.0000000000  0.0000000000
4
scale = 2.45000
Li  6.5462863200  4.6289231555  11.3384978595
Li  3.2731431600  2.3144615900  5.6692489175
Li  9.8194294800  6.9433847455  17.0077467770
Sb  0.0000000000  0.0000000000  0.0000000000
