4
scale = 0.75000
Li  1.1115478275  0.7859830050  1.9252573125
Li  3.3346434825  2.3579490225  5.7757719375
Li  2.2230956550  1.5719660100  3.8505146250
Sm  0.0000000000  0.0000000000  0.0000000000
4
scale = 0.80000
Li  1.1856510160  0.8383818720  2.0536078000
Li  3.5569530480  2.5151456240  6.1608234000
Li  2.3713020320  1.6767637440  4.1072156000
Sm  0.0000000000  0.0000000000  0.0000000000
4
scale = 0.85000
Li  1.2597542045  0.8907807390  2.1819582875
Li  3.7792626135  2.6723422255  6.5458748625
Li  2.5195084090  1.7815614780  4.3639165750
Sm  0.0000000000  0.0000000000  0.0000000000
4
scale = 0.90000
Li  1.3338573930  0.9431796060  2.3103087750
Li  4.0015721790  2.8295388270  6.9309263250
Li  2.6677147860  1.8863592120  4.6206175500
Sm  0.0000000000  0.0000000000  0.0000000000
4
scale = 0.95000
Li  1.4079605815  0.9955784730  2.4386592625
Li  4.2238817445  2.9867354285  7.3159777875
Li  2.8159211630  1.9911569460  4.8773185250
Sm  0.0000000000  0.0000000000  0.0000000000
4
scale = 1.00000
Li  1.4820637700  1.0479773400  2.5670097500
Li  4.4461913100  3.1439320300  7.7010292500
Li  2.9641275400  2.0959546800  5.1340195000
Sm  0.0000000000  0.0000000000  0.0000000000
4
scale = 1.05000
Li  1.5561669585  1.1003762070  2.6953602375
Li  4.6685008755  3.3011286315  8.0860807125
Li  3.1123339170  2.2007524140  5.3907204750
Sm  0.0000000000  0.0000000000  0.0000000000
4
scale = 1.10000
Li  1.6302701470  1.1527750740  2.8237107250
Li  4.8908104410  3.4583252330  8.4711321750
Li  3.2605402940  2.3055501480  5.6474214500
Sm  0.0000000000  0.0000000000  0.0000000000
4
scale = 1.15000
Li  1.7043733355  1.2051739410  2.9520612125
Li  5.1131200065  3.6155218345  8.8561836375
Li  3.4087466710  2.4103478820  5.9041224250
Sm  0.0000000000  0.0000000000  0.0000000000
4
scale = 1.20000
Li  1.7784765240  1.2575728080  3.0804117000
Li  5.3354295720  3.7727184360  9.2412351000
Li  3.5569530480  2.5151456160  6.1608234000
Sm  0.0000000000  0.0000000000  0.0000000000
4
scale = 1.25000
Li  1.8525797125  1.3099716750  3.2087621875
Li  5.5577391375  3.9299150375  9.6262865625
Li  3.7051594250  2.6199433500  6.4175243750
Sm  0.0000000000  0.0000000000  0.0000000000
4
scale = 1.30000
Li  1.9266829010  1.3623705420  3.3371126750
Li  5.7800487030  4.0871116390  10.0113380250
Li  3.8533658020  2.7247410840  6.6742253500
Sm  0.0000000000  0.0000000000  0.0000000000
4
scale = 1.35000
Li  2.0007860895  1.4147694090  3.4654631625
Li  6.0023582685  4.2443082405  10.3963894875
Li  4.0015721790  2.8295388180  6.9309263250
Sm  0.0000000000  0.0000000000  0.0000000000
4
scale = 1.40000
Li  2.0748892780  1.4671682760  3.5938136500
Li  6.2246678340  4.4015048420  10.7814409500
Li  4.1497785560  2.9343365520  7.1876273000
Sm  0.0000000000  0.0000000000  0.0000000000
4
scale = 1.45000
Li  2.1489924665  1.5195671430  3.7221641375
Li  6.4469773995  4.5587014435  11.1664924125
Li  4.2979849330  3.0391342860  7.4443282750
Sm  0.0000000000  0.0000000000  0.0000000000
4
scale = 1.50000
Li  2.2230956550  1.5719660100  3.8505146250
Li  6.6692869650  4.7158980450  11.5515438750
Li  4.4461913100  3.1439320200  7.7010292500
Sm  0.0000000000  0.0000000000  0.0000000000
4
scale = 1.55000
Li  2.2971988435  1.6243648770  3.9788651125
Li  6.8915965305  4.8730946465  11.9365953375
Li  4.5943976870  3.2487297540  7.9577302250
Sm  0.0000000000  0.0000000000  0.0000000000
4
scale = 1.60000
Li  2.3713020320  1.6767637440  4.1072156000
Li  7.1139060960  5.0302912480  12.3216468000
Li  4.7426040640  3.3535274880  8.2144312000
Sm  0.0000000000  0.0000000000  0.0000000000
4
scale = 1.65000
Li  2.4454052205  1.7291626110  4.2355660875
Li  7.3362156615  5.1874878495  12.7066982625
Li  4.8908104410  3.4583252220  8.4711321750
Sm  0.0000000000  0.0000000000  0.0000000000
4
scale = 1.70000
Li  2.5195084090  1.7815614780  4.3639165750
Li  7.5585252270  5.3446844510  13.0917497250
Li  5.0390168180  3.5631229560  8.7278331500
Sm  0.0000000000  0.0000000000  0.0000000000
4
scale = 1.75000
Li  2.5936115975  1.8339603450  4.4922670625
Li  7.7808347925  5.5018810525  13.4768011875
Li  5.1872231950  3.6679206900  8.9845341250
Sm  0.0000000000  0.0000000000  0.0000000000
4
scale = 1.80000
Li  2.6677147860  1.8863592120  4.6206175500
Li  8.0031443580  5.6590776540  13.8618526500
Li  5.3354295720  3.7727184240  9.2412351000
Sm  0.0000000000  0.0000000000  0.0000000000
4
scale = 1.85000
Li  2.7418179745  1.9387580790  4.7489680375
Li  8.2254539235  5.8162742555  14.2469041125
Li  5.4836359490  3.8775161580  9.4979360750
Sm  0.0000000000  0.0000000000  0.0000000000
4
scale = 1.90000
Li  2.8159211630  1.9911569460  4.8773185250
Li  8.4477634890  5.9734708570  14.6319555750
Li  5.6318423260  3.9823138920  9.7546370500
Sm  0.0000000000  0.0000000000  0.0000000000
4
scale = 1.95000
Li  2.8900243515  2.0435558130  5.0056690125
Li  8.6700730545  6.1306674585  15.0170070375
Li  5.7800487030  4.0871116260  10.0113380250
Sm  0.0000000000  0.0000000000  0.0000000000
4
scale = 2.00000
Li  2.9641275400  2.0959546800  5.1340195000
Li  8.8923826200  6.2878640600  15.4020585000
Li  5.9282550800  4.1919093600  10.2680390000
Sm  0.0000000000  0.0000000000  0.0000000000
4
scale = 2.05000
Li  3.0382307285  2.1483535470  5.2623699875
Li  9.1146921855  6.4450606615  15.7871099625
Li  6.0764614570  4.2967070940  10.5247399750
Sm  0.0000000000  0.0000000000  0.0000000000
4
scale = 2.10000
Li  3.1123339170  2.2007524140  5.3907204750
Li  9.3370017510  6.6022572630  16.1721614250
Li  6.2246678340  4.4015048280  10.7814409500
Sm  0.0000000000  0.0000000000  0.0000000000
4
scale = 2.15000
Li  3.1864371055  2.2531512810  5.5190709625
Li  9.5593113165  6.7594538645  16.5572128875
Li  6.3728742110  4.5063025620  11.0381419250
Sm  0.0000000000  0.0000000000  0.0000000000
4
scale = 2.20000
Li  3.2605402940  2.3055501480  5.6474214500
Li  9.7816208820  6.9166504660  16.9422643500
Li  6.5210805880  4.6111002960  11.2948429000
Sm  0.0000000000  0.0000000000  0.0000000000
4
scale = 2.25000
Li  3.3346434825  2.3579490150  5.7757719375
Li  10.0039304475  7.0738470675  17.3273158125
Li  6.6692869650  4.7158980300  11.5515438750
Sm  0.0000000000  0.0000000000  0.0000000000
4
scale = 2.30000
Li  3.4087466710  2.4103478820  5.9041224250
Li  10.2262400130  7.2310436690  17.7123672750
Li  6.8174933420  4.8206957640  11.8082448500
Sm  0.0000000000  0.0000000000  0.0000000000
4
scale = 2.35000
Li  3.4828498595  2.4627467490  6.0324729125
Li  10.4485495785  7.3882402705  18.0974187375
Li  6.9656997190  4.9254934980  12.0649458250
Sm  0.0000000000  0.0000000000  0.0000000000
4
scale = 2.40000
Li  3.5569530480  2.5151456160  6.1608234000
Li  10.6708591440  7.5454368720  18.4824702000
Li  7.1139060960  5.0302912320  12.3216468000
Sm  0.0000000000  0.0000000000  0.0000000000
4
scale = 2.45000
Li  3.6310562365  2.5675444830  6.2891738875
Li  10.8931687095  7.7026334735  18.8675216625
Li  7.2621124730  5.1350889660  12.5783477750
Sm  0.0000000000  0.0000000000  0.0000000000
