4
scale = 0.75000
Li  0.9499047750  0.6716841075  1.6452833325
Li  2.8497143175  2.0150523225  4.9358499900
Li  1.8998095425  1.3433682150  3.2905666575
Tc  0.0000000000  0.0000000000  0.0000000000
4
scale = 0.80000
Li  1.0132317600  0.7164630480  1.7549688880
Li  3.0396952720  2.1493891440  5.2649066560
Li  2.0264635120  1.4329260960  3.5099377680
Tc  0.0000000000  0.0000000000  0.0000000000
4
scale = 0.85000
Li  1.0765587450  0.7612419885  1.8646544435
Li  3.2296762265  2.2837259655  5.5939633220
Li  2.1531174815  1.5224839770  3.7293088785
Tc  0.0000000000  0.0000000000  0.0000000000
4
scale = 0.90000
Li  1.1398857300  0.8060209290  1.9743399990
Li  3.4196571810  2.4180627870  5.9230199880
Li  2.2797714510  1.6120418580  3.9486799890
Tc  0.0000000000  0.0000000000  0.0000000000
4
scale = 0.95000
Li  1.2032127150  0.8507998695  2.0840255545
Li  3.6096381355  2.5523996085  6.2520766540
Li  2.4064254205  1.7015997390  4.1680510995
Tc  0.0000000000  0.0000000000  0.0000000000
4
scale = 1.00000
Li  1.2665397000  0.8955788100  2.1937111100
Li  3.7996190900  2.6867364300  6.5811333200
Li  2.5330793900  1.7911576200  4.3874222100
Tc  0.0000000000  0.0000000000  0.0000000000
4
scale = 1.05000
Li  1.3298666850  0.9403577505  2.3033966655
Li  3.9896000445  2.8210732515  6.9101899860
Li  2.6597333595  1.8807155010  4.6067933205
Tc  0.0000000000  0.0000000000  0.0000000000
4
scale = 1.10000
Li  1.3931936700  0.9851366910  2.4130822210
Li  4.1795809990  2.9554100730  7.2392466520
Li  2.7863873290  1.9702733820  4.8261644310
Tc  0.0000000000  0.0000000000  0.0000000000
4
scale = 1.15000
Li  1.4565206550  1.0299156315  2.5227677765
Li  4.3695619535  3.0897468945  7.5683033180
Li  2.9130412985  2.0598312630  5.0455355415
Tc  0.0000000000  0.0000000000  0.0000000000
4
scale = 1.20000
Li  1.5198476400  1.0746945720  2.6324533320
Li  4.5595429080  3.2240837160  7.8973599840
Li  3.0396952680  2.1493891440  5.2649066520
Tc  0.0000000000  0.0000000000  0.0000000000
4
scale = 1.25000
Li  1.5831746250  1.1194735125  2.7421388875
Li  4.7495238625  3.3584205375  8.2264166500
Li  3.1663492375  2.2389470250  5.4842777625
Tc  0.0000000000  0.0000000000  0.0000000000
4
scale = 1.30000
Li  1.6465016100  1.1642524530  2.8518244430
Li  4.9395048170  3.4927573590  8.5554733160
Li  3.2930032070  2.3285049060  5.7036488730
Tc  0.0000000000  0.0000000000  0.0000000000
4
scale = 1.35000
Li  1.7098285950  1.2090313935  2.9615099985
Li  5.1294857715  3.6270941805  8.8845299820
Li  3.4196571765  2.4180627870  5.9230199835
Tc  0.0000000000  0.0000000000  0.0000000000
4
scale = 1.40000
Li  1.7731555800  1.2538103340  3.0711955540
Li  5.3194667260  3.7614310020  9.2135866480
Li  3.5463111460  2.5076206680  6.1423910940
Tc  0.0000000000  0.0000000000  0.0000000000
4
scale = 1.45000
Li  1.8364825650  1.2985892745  3.1808811095
Li  5.5094476805  3.8957678235  9.5426433140
Li  3.6729651155  2.5971785490  6.3617622045
Tc  0.0000000000  0.0000000000  0.0000000000
4
scale = 1.50000
Li  1.8998095500  1.3433682150  3.2905666650
Li  5.6994286350  4.0301046450  9.8716999800
Li  3.7996190850  2.6867364300  6.5811333150
Tc  0.0000000000  0.0000000000  0.0000000000
4
scale = 1.55000
Li  1.9631365350  1.3881471555  3.4002522205
Li  5.8894095895  4.1644414665  10.2007566460
Li  3.9262730545  2.7762943110  6.8005044255
Tc  0.0000000000  0.0000000000  0.0000000000
4
scale = 1.60000
Li  2.0264635200  1.4329260960  3.5099377760
Li  6.0793905440  4.2987782880  10.5298133120
Li  4.0529270240  2.8658521920  7.0198755360
Tc  0.0000000000  0.0000000000  0.0000000000
4
scale = 1.65000
Li  2.0897905050  1.4777050365  3.6196233315
Li  6.2693714985  4.4331151095  10.8588699780
Li  4.1795809935  2.9554100730  7.2392466465
Tc  0.0000000000  0.0000000000  0.0000000000
4
scale = 1.70000
Li  2.1531174900  1.5224839770  3.7293088870
Li  6.4593524530  4.5674519310  11.1879266440
Li  4.3062349630  3.0449679540  7.4586177570
Tc  0.0000000000  0.0000000000  0.0000000000
4
scale = 1.75000
Li  2.2164444750  1.5672629175  3.8389944425
Li  6.6493334075  4.7017887525  11.5169833100
Li  4.4328889325  3.1345258350  7.6779888675
Tc  0.0000000000  0.0000000000  0.0000000000
4
scale = 1.80000
Li  2.2797714600  1.6120418580  3.9486799980
Li  6.8393143620  4.8361255740  11.8460399760
Li  4.5595429020  3.2240837160  7.8973599780
Tc  0.0000000000  0.0000000000  0.0000000000
4
scale = 1.85000
Li  2.3430984450  1.6568207985  4.0583655535
Li  7.0292953165  4.9704623955  12.1750966420
Li  4.6861968715  3.3136415970  8.1167310885
Tc  0.0000000000  0.0000000000  0.0000000000
4
scale = 1.90000
Li  2.4064254300  1.7015997390  4.1680511090
Li  7.2192762710  5.1047992170  12.5041533080
Li  4.8128508410  3.4031994780  8.3361021990
Tc  0.0000000000  0.0000000000  0.0000000000
4
scale = 1.95000
Li  2.4697524150  1.7463786795  4.2777366645
Li  7.4092572255  5.2391360385  12.8332099740
Li  4.9395048105  3.4927573590  8.5554733095
Tc  0.0000000000  0.0000000000  0.0000000000
4
scale = 2.00000
Li  2.5330794000  1.7911576200  4.3874222200
Li  7.5992381800  5.3734728600  13.1622666400
Li  5.0661587800  3.5823152400  8.7748444200
Tc  0.0000000000  0.0000000000  0.0000000000
4
scale = 2.05000
Li  2.5964063850  1.8359365605  4.4971077755
Li  7.7892191345  5.5078096815  13.4913233060
Li  5.1928127495  3.6718731210  8.9942155305
Tc  0.0000000000  0.0000000000  0.0000000000
4
scale = 2.10000
Li  2.6597333700  1.8807155010  4.6067933310
Li  7.9792000890  5.6421465030  13.8203799720
Li  5.3194667190  3.7614310020  9.2135866410
Tc  0.0000000000  0.0000000000  0.0000000000
4
scale = 2.15000
Li  2.7230603550  1.9254944415  4.7164788865
Li  8.1691810435  5.7764833245  14.1494366380
Li  5.4461206885  3.8509888830  9.4329577515
Tc  0.0000000000  0.0000000000  0.0000000000
4
scale = 2.20000
Li  2.7863873400  1.9702733820  4.8261644420
Li  8.3591619980  5.9108201460  14.4784933040
Li  5.5727746580  3.9405467640  9.6523288620
Tc  0.0000000000  0.0000000000  0.0000000000
4
scale = 2.25000
Li  2.8497143250  2.0150523225  4.9358499975
Li  8.5491429525  6.0451569675  14.8075499700
Li  5.6994286275  4.0301046450  9.8716999725
Tc  0.0000000000  0.0000000000  0.0000000000
4
scale = 2.30000
Li  2.9130413100  2.0598312630  5.0455355530
Li  8.7391239070  6.1794937890  15.1366066360
Li  5.8260825970  4.1196625260  10.0910710830
Tc  0.0000000000  0.0000000000  0.0000000000
4
scale = 2.35000
Li  2.9763682950  2.1046102035  5.1552211085
Li  8.9291048615  6.3138306105  15.4656633020
Li  5.9527365665  4.2092204070  10.3104421935
Tc  0.0000000000  0.0000000000  0.0000000000
4
scale = 2.40000
Li  3.0396952800  2.1493891440  5.2649066640
Li  9.1190858160  6.4481674320  15.7947199680
Li  6.0793905360  4.2987782880  10.5298133040
Tc  0.0000000000  0.0000000000  0.0000000000
4
scale = 2.45000
Li  3.1030222650  2.1941680845  5.3745922195
Li  9.3090667705  6.5825042535  16.1237766340
Li  6.2060445055  4.3883361690  10.7491844145
Tc  0.0000000000  0.0000000000  0.0000000000
