8
scale = 0.75000
Li  -0.0000024000  1.3498425450  0.8555015625
Li  1.1672748000  3.3716260800  0.8555015625
Li  -1.1672798025  3.3716260800  0.8555015625
Li  2.3362763025  2.6967027825  2.5665046875
Li  1.1689991025  0.6749192475  2.5665046875
Li  3.5035537050  0.6749192475  2.5665046875
Te  -0.0000001350  2.6976968850  2.5665046875
Te  2.3362740375  1.3488484425  0.8555015625
8
scale = 0.80000
Li  -0.0000025600  1.4398320480  0.9125350000
Li  1.2450931200  3.5964011520  0.9125350000
Li  -1.2450984560  3.5964011520  0.9125350000
Li  2.4920280560  2.8764829680  2.7376050000
Li  1.2469323760  0.7199138640  2.7376050000
Li  3.7371239520  0.7199138640  2.7376050000
Te  -0.0000001440  2.8775433440  2.7376050000
Te  2.4920256400  1.4387716720  0.9125350000
8
scale = 0.85000
Li  -0.0000027200  1.5298215510  0.9695684375
Li  1.3229114400  3.8211762240  0.9695684375
Li  -1.3229171095  3.8211762240  0.9695684375
Li  2.6477798095  3.0562631535  2.9087053125
Li  1.3248656495  0.7649084805  2.9087053125
Li  3.9706941990  0.7649084805  2.9087053125
Te  -0.0000001530  3.0573898030  2.9087053125
Te  2.6477772425  1.5286949015  0.9695684375
8
scale = 0.90000
Li  -0.0000028800  1.6198110540  1.0266018750
Li  1.4007297600  4.0459512960  1.0266018750
Li  -1.4007357630  4.0459512960  1.0266018750
Li  2.8035315630  3.2360433390  3.0798056250
Li  1.4027989230  0.8099030970  3.0798056250
Li  4.2042644460  0.8099030970  3.0798056250
Te  -0.0000001620  3.2372362620  3.0798056250
Te  2.8035288450  1.6186181310  1.0266018750
8
scale = 0.95000
Li  -0.0000030400  1.7098005570  1.0836353125
Li  1.4785480800  4.2707263680  1.0836353125
Li  -1.4785544165  4.2707263680  1.0836353125
Li  2.9592833165  3.4158235245  3.2509059375
Li  1.4807321965  0.8548977135  3.2509059375
Li  4.4378346930  0.8548977135  3.2509059375
Te  -0.0000001710  3.4170827210  3.2509059375
Te  2.9592804475  1.7085413605  1.0836353125
8
scale = 1.00000
Li  -0.0000032000  1.7997900600  1.1406687500
Li  1.5563664000  4.4955014400  1.1406687500
Li  -1.5563730700  4.4955014400  1.1406687500
Li  3.1150350700  3.5956037100  3.4220062500
Li  1.5586654700  0.8998923300  3.4220062500
Li  4.6714049400  0.8998923300  3.4220062500
Te  -0.0000001800  3.5969291800  3.4220062500
Te  3.1150320500  1.7984645900  1.1406687500
8
scale = 1.05000
Li  -0.0000033600  1.8897795630  1.1977021875
Li  1.6341847200  4.7202765120  1.1977021875
Li  -1.6341917235  4.7202765120  1.1977021875
Li  3.2707868235  3.7753838955  3.5931065625
Li  1.6365987435  0.9448869465  3.5931065625
Li  4.9049751870  0.9448869465  3.5931065625
Te  -0.0000001890  3.7767756390  3.5931065625
Te  3.2707836525  1.8883878195  1.1977021875
8
scale = 1.10000
Li  -0.0000035200  1.9797690660  1.2547356250
Li  1.7120030400  4.9450515840  1.2547356250
Li  -1.7120103770  4.9450515840  1.2547356250
Li  3.4265385770  3.9551640810  3.7642068750
Li  1.7145320170  0.9898815630  3.7642068750
Li  5.1385454340  0.9898815630  3.7642068750
Te  -0.0000001980  3.9566220980  3.7642068750
Te  3.4265352550  1.9783110490  1.2547356250
8
scale = 1.15000
Li  -0.0000036800  2.0697585690  1.3117690625
Li  1.7898213600  5.1698266560  1.3117690625
Li  -1.7898290305  5.1698266560  1.3117690625
Li  3.5822903305  4.1349442665  3.9353071875
Li  1.7924652905  1.0348761795  3.9353071875
Li  5.3721156810  1.0348761795  3.9353071875
Te  -0.0000002070  4.1364685570  3.9353071875
Te  3.5822868575  2.0682342785  1.3117690625
8
scale = 1.20000
Li  -0.0000038400  2.1597480720  1.3688025000
Li  1.8676396800  5.3946017280  1.3688025000
Li  -1.8676476840  5.3946017280  1.3688025000
Li  3.7380420840  4.3147244520  4.1064075000
Li  1.8703985640  1.0798707960  4.1064075000
Li  5.6056859280  1.0798707960  4.1064075000
Te  -0.0000002160  4.3163150160  4.1064075000
Te  3.7380384600  2.1581575080  1.3688025000
8
scale = 1.25000
Li  -0.0000040000  2.2497375750  1.4258359375
Li  1.9454580000  5.6193768000  1.4258359375
Li  -1.9454663375  5.6193768000  1.4258359375
Li  3.8937938375  4.4945046375  4.2775078125
Li  1.9483318375  1.1248654125  4.2775078125
Li  5.8392561750  1.1248654125  4.2775078125
Te  -0.0000002250  4.4961614750  4.2775078125
Te  3.8937900625  2.2480807375  1.4258359375
8
scale = 1.30000
Li  -0.0000041600  2.3397270780  1.4828693750
Li  2.0232763200  5.8441518720  1.4828693750
Li  -2.0232849910  5.8441518720  1.4828693750
Li  4.0495455910  4.6742848230  4.4486081250
Li  2.0262651110  1.1698600290  4.4486081250
Li  6.0728264220  1.1698600290  4.4486081250
Te  -0.0000002340  4.6760079340  4.4486081250
Te  4.0495416650  2.3380039670  1.4828693750
8
scale = 1.35000
Li  -0.0000043200  2.4297165810  1.5399028125
Li  2.1010946400  6.0689269440  1.5399028125
Li  -2.1011036445  6.0689269440  1.5399028125
Li  4.2052973445  4.8540650085  4.6197084375
Li  2.1041983845  1.2148546455  4.6197084375
Li  6.3063966690  1.2148546455  4.6197084375
Te  -0.0000002430  4.8558543930  4.6197084375
Te  4.2052932675  2.4279271965  1.5399028125
8
scale = 1.40000
Li  -0.0000044800  2.5197060840  1.5969362500
Li  2.1789129600  6.2937020160  1.5969362500
Li  -2.1789222980  6.2937020160  1.5969362500
Li  4.3610490980  5.0338451940  4.7908087500
Li  2.1821316580  1.2598492620  4.7908087500
Li  6.5399669160  1.2598492620  4.7908087500
Te  -0.0000002520  5.0357008520  4.7908087500
Te  4.3610448700  2.5178504260  1.5969362500
8
scale = 1.45000
Li  -0.0000046400  2.6096955870  1.6539696875
Li  2.2567312800  6.5184770880  1.6539696875
Li  -2.2567409515  6.5184770880  1.6539696875
Li  4.5168008515  5.2136253795  4.9619090625
Li  2.2600649315  1.3048438785  4.9619090625
Li  6.7735371630  1.3048438785  4.9619090625
Te  -0.0000002610  5.2155473110  4.9619090625
Te  4.5167964725  2.6077736555  1.6539696875
8
scale = 1.50000
Li  -0.0000048000  2.6996850900  1.7110031250
Li  2.3345496000  6.7432521600  1.7110031250
Li  -2.3345596050  6.7432521600  1.7110031250
Li  4.6725526050  5.3934055650  5.1330093750
Li  2.3379982050  1.3498384950  5.1330093750
Li  7.0071074100  1.3498384950  5.1330093750
Te  -0.0000002700  5.3953937700  5.1330093750
Te  4.6725480750  2.6976968850  1.7110031250
8
scale = 1.55000
Li  -0.0000049600  2.7896745930  1.7680365625
Li  2.4123679200  6.9680272320  1.7680365625
Li  -2.4123782585  6.9680272320  1.7680365625
Li  4.8283043585  5.5731857505  5.3041096875
Li  2.4159314785  1.3948331115  5.3041096875
Li  7.2406776570  1.3948331115  5.3041096875
Te  -0.0000002790  5.5752402290  5.3041096875
Te  4.8282996775  2.7876201145  1.7680365625
8
scale = 1.60000
Li  -0.0000051200  2.8796640960  1.8250700000
Li  2.4901862400  7.1928023040  1.8250700000
Li  -2.4901969120  7.1928023040  1.8250700000
Li  4.9840561120  5.7529659360  5.4752100000
Li  2.4938647520  1.4398277280  5.4752100000
Li  7.4742479040  1.4398277280  5.4752100000
Te  -0.0000002880  5.7550866880  5.4752100000
Te  4.9840512800  2.8775433440  1.8250700000
8
scale = 1.65000
Li  -0.0000052800  2.9696535990  1.8821034375
Li  2.5680045600  7.4175773760  1.8821034375
Li  -2.5680155655  7.4175773760  1.8821034375
Li  5.1398078655  5.9327461215  5.6463103125
Li  2.5717980255  1.4848223445  5.6463103125
Li  7.7078181510  1.4848223445  5.6463103125
Te  -0.0000002970  5.9349331470  5.6463103125
Te  5.1398028825  2.9674665735  1.8821034375
8
scale = 1.70000
Li  -0.0000054400  3.0596431020  1.9391368750
Li  2.6458228800  7.6423524480  1.9391368750
Li  -2.6458342190  7.6423524480  1.9391368750
Li  5.2955596190  6.1125263070  5.8174106250
Li  2.6497312990  1.5298169610  5.8174106250
Li  7.9413883980  1.5298169610  5.8174106250
Te  -0.0000003060  6.1147796060  5.8174106250
Te  5.2955544850  3.0573898030  1.9391368750
8
scale = 1.75000
Li  -0.0000056000  3.1496326050  1.9961703125
Li  2.7236412000  7.8671275200  1.9961703125
Li  -2.7236528725  7.8671275200  1.9961703125
Li  5.4513113725  6.2923064925  5.9885109375
Li  2.7276645725  1.5748115775  5.9885109375
Li  8.1749586450  1.5748115775  5.9885109375
Te  -0.0000003150  6.2946260650  5.9885109375
Te  5.4513060875  3.1473130325  1.9961703125
8
scale = 1.80000
Li  -0.0000057600  3.2396221080  2.0532037500
Li  2.8014595200  8.0919025920  2.0532037500
Li  -2.8014715260  8.0919025920  2.0532037500
Li  5.6070631260  6.4720866780  6.1596112500
Li  2.8055978460  1.6198061940  6.1596112500
Li  8.4085288920  1.6198061940  6.1596112500
Te  -0.0000003240  6.4744725240  6.1596112500
Te  5.6070576900  3.2372362620  2.0532037500
8
scale = 1.85000
Li  -0.0000059200  3.3296116110  2.1102371875
Li  2.8792778400  8.3166776640  2.1102371875
Li  -2.8792901795  8.3166776640  2.1102371875
Li  5.7628148795  6.6518668635  6.3307115625
Li  2.8835311195  1.6648008105  6.3307115625
Li  8.6420991390  1.6648008105  6.3307115625
Te  -0.0000003330  6.6543189830  6.3307115625
Te  5.7628092925  3.3271594915  2.1102371875
8
scale = 1.90000
Li  -0.0000060800  3.4196011140  2.1672706250
Li  2.9570961600  8.5414527360  2.1672706250
Li  -2.9571088330  8.5414527360  2.1672706250
Li  5.9185666330  6.8316470490  6.5018118750
Li  2.9614643930  1.7097954270  6.5018118750
Li  8.8756693860  1.7097954270  6.5018118750
Te  -0.0000003420  6.8341654420  6.5018118750
Te  5.9185608950  3.4170827210  2.1672706250
8
scale = 1.95000
Li  -0.0000062400  3.5095906170  2.2243040625
Li  3.0349144800  8.7662278080  2.2243040625
Li  -3.0349274865  8.7662278080  2.2243040625
Li  6.0743183865  7.0114272345  6.6729121875
Li  3.0393976665  1.7547900435  6.6729121875
Li  9.1092396330  1.7547900435  6.6729121875
Te  -0.0000003510  7.0140119010  6.6729121875
Te  6.0743124975  3.5070059505  2.2243040625
8
scale = 2.00000
Li  -0.0000064000  3.5995801200  2.2813375000
Li  3.1127328000  8.9910028800  2.2813375000
Li  -3.1127461400  8.9910028800  2.2813375000
Li  6.2300701400  7.1912074200  6.8440125000
Li  3.1173309400  1.7997846600  6.8440125000
Li  9.3428098800  1.7997846600  6.8440125000
Te  -0.0000003600  7.1938583600  6.8440125000
Te  6.2300641000  3.5969291800  2.2813375000
8
scale = 2.05000
Li  -0.0000065600  3.6895696230  2.3383709375
Li  3.1905511200  9.2157779520  2.3383709375
Li  -3.1905647935  9.2157779520  2.3383709375
Li  6.3858218935  7.3709876055  7.0151128125
Li  3.1952642135  1.8447792765  7.0151128125
Li  9.5763801270  1.8447792765  7.0151128125
Te  -0.0000003690  7.3737048190  7.0151128125
Te  6.3858157025  3.6868524095  2.3383709375
8
scale = 2.10000
Li  -0.0000067200  3.7795591260  2.3954043750
Li  3.2683694400  9.4405530240  2.3954043750
Li  -3.2683834470  9.4405530240  2.3954043750
Li  6.5415736470  7.5507677910  7.1862131250
Li  3.2731974870  1.8897738930  7.1862131250
Li  9.8099503740  1.8897738930  7.1862131250
Te  -0.0000003780  7.5535512780  7.1862131250
Te  6.5415673050  3.7767756390  2.3954043750
8
scale = 2.15000
Li  -0.0000068800  3.8695486290  2.4524378125
Li  3.3461877600  9.6653280960  2.4524378125
Li  -3.3462021005  9.6653280960  2.4524378125
Li  6.6973254005  7.7305479765  7.3573134375
Li  3.3511307605  1.9347685095  7.3573134375
Li  10.0435206210  1.9347685095  7.3573134375
Te  -0.0000003870  7.7333977370  7.3573134375
Te  6.6973189075  3.8666988685  2.4524378125
8
scale = 2.20000
Li  -0.0000070400  3.9595381320  2.5094712500
Li  3.4240060800  9.8901031680  2.5094712500
Li  -3.4240207540  9.8901031680  2.5094712500
Li  6.8530771540  7.9103281620  7.5284137500
Li  3.4290640340  1.9797631260  7.5284137500
Li  10.2770908680  1.9797631260  7.5284137500
Te  -0.0000003960  7.9132441960  7.5284137500
Te  6.8530705100  3.9566220980  2.5094712500
8
scale = 2.25000
Li  -0.0000072000  4.0495276350  2.5665046875
Li  3.5018244000  10.1148782400  2.5665046875
Li  -3.5018394075  10.1148782400  2.5665046875
Li  7.0088289075  8.0901083475  7.6995140625
Li  3.5069973075  2.0247577425  7.6995140625
Li  10.5106611150  2.0247577425  7.6995140625
Te  -0.0000004050  8.0930906550  7.6995140625
Te  7.0088221125  4.0465453275  2.5665046875
8
scale = 2.30000
Li  -0.0000073600  4.1395171380  2.6235381250
Li  3.5796427200  10.3396533120  2.6235381250
Li  -3.5796580610  10.3396533120  2.6235381250
Li  7.1645806610  8.2698885330  7.8706143750
Li  3.5849305810  2.0697523590  7.8706143750
Li  10.7442313620  2.0697523590  7.8706143750
Te  -0.0000004140  8.2729371140  7.8706143750
Te  7.1645737150  4.1364685570  2.6235381250
8
scale = 2.35000
Li  -0.0000075200  4.2295066410  2.6805715625
Li  3.6574610400  10.5644283840  2.6805715625
Li  -3.6574767145  10.5644283840  2.6805715625
Li  7.3203324145  8.4496687185  8.0417146875
Li  3.6628638545  2.1147469755  8.0417146875
Li  10.9778016090  2.1147469755  8.0417146875
Te  -0.0000004230  8.4527835730  8.0417146875
Te  7.3203253175  4.2263917865  2.6805715625
8
scale = 2.40000
Li  -0.0000076800  4.3194961440  2.7376050000
Li  3.7352793600  10.7892034560  2.7376050000
Li  -3.7352953680  10.7892034560  2.7376050000
Li  7.4760841680  8.6294489040  8.2128150000
Li  3.7407971280  2.1597415920  8.2128150000
Li  11.2113718560  2.1597415920  8.2128150000
Te  -0.0000004320  8.6326300320  8.2128150000
Te  7.4760769200  4.3163150160  2.7376050000
8
scale = 2.45000
Li  -0.0000078400  4.4094856470  2.7946384375
Li  3.8130976800  11.0139785280  2.7946384375
Li  -3.8131140215  11.0139785280  2.7946384375
Li  7.6318359215  8.8092290895  8.3839153125
Li  3.8187304015  2.2047362085  8.3839153125
Li  11.4449421030  2.2047362085  8.3839153125
Te  -0.0000004410  8.8124764910  8.3839153125
Te  7.6318285225  4.4062382455  2.7946384375
