4
scale = 0.75000
Li  1.8409633275  0.6409537050  -0.7786598400
Li  0.3202698225  1.9228611150  -0.7786598400
Li  1.0806165750  1.2819074100  -2.6272619925
Tc  0.0000000000  0.0000000000  0.0000000000
4
scale = 0.80000
Li  1.9636942160  0.6836839520  -0.8305704960
Li  0.3416211440  2.0510518560  -0.8305704960
Li  1.1526576800  1.3673679040  -2.8024127920
Tc  0.0000000000  0.0000000000  0.0000000000
4
scale = 0.85000
Li  2.0864251045  0.7264141990  -0.8824811520
Li  0.3629724655  2.1792425970  -0.8824811520
Li  1.2246987850  1.4528283980  -2.9775635915
Tc  0.0000000000  0.0000000000  0.0000000000
4
scale = 0.90000
Li  2.2091559930  0.7691444460  -0.9343918080
Li  0.3843237870  2.3074333380  -0.9343918080
Li  1.2967398900  1.5382888920  -3.1527143910
Tc  0.0000000000  0.0000000000  0.0000000000
4
scale = 0.95000
Li  2.3318868815  0.8118746930  -0.9863024640
Li  0.4056751085  2.4356240790  -0.9863024640
Li  1.3687809950  1.6237493860  -3.3278651905
Tc  0.0000000000  0.0000000000  0.0000000000
4
scale = 1.00000
Li  2.4546177700  0.8546049400  -1.0382131200
Li  0.4270264300  2.5638148200  -1.0382131200
Li  1.4408221000  1.7092098800  -3.5030159900
Tc  0.0000000000  0.0000000000  0.0000000000
4
scale = 1.05000
Li  2.5773486585  0.8973351870  -1.0901237760
Li  0.4483777515  2.6920055610  -1.0901237760
Li  1.5128632050  1.7946703740  -3.6781667895
Tc  0.0000000000  0.0000000000  0.0000000000
4
scale = 1.10000
Li  2.7000795470  0.9400654340  -1.1420344320
Li  0.4697290730  2.8201963020  -1.1420344320
Li  1.5849043100  1.8801308680  -3.8533175890
Tc  0.0000000000  0.0000000000  0.0000000000
4
scale = 1.15000
Li  2.8228104355  0.9827956810  -1.1939450880
Li  0.4910803945  2.9483870430  -1.1939450880
Li  1.6569454150  1.9655913620  -4.0284683885
Tc  0.0000000000  0.0000000000  0.0000000000
4
scale = 1.20000
Li  2.9455413240  1.0255259280  -1.2458557440
Li  0.5124317160  3.0765777840  -1.2458557440
Li  1.7289865200  2.0510518560  -4.2036191880
Tc  0.0000000000  0.0000000000  0.0000000000
4
scale = 1.25000
Li  3.0682722125  1.0682561750  -1.2977664000
Li  0.5337830375  3.2047685250  -1.2977664000
Li  1.8010276250  2.1365123500  -4.3787699875
Tc  0.0000000000  0.0000000000  0.0000000000
4
scale = 1.30000
Li  3.1910031010  1.1109864220  -1.3496770560
Li  0.5551343590  3.3329592660  -1.3496770560
Li  1.8730687300  2.2219728440  -4.5539207870
Tc  0.0000000000  0.0000000000  0.0000000000
4
scale = 1.35000
Li  3.3137339895  1.1537166690  -1.4015877120
Li  0.5764856805  3.4611500070  -1.4015877120
Li  1.9451098350  2.3074333380  -4.7290715865
Tc  0.0000000000  0.0000000000  0.0000000000
4
scale = 1.40000
Li  3.4364648780  1.1964469160  -1.4534983680
Li  0.5978370020  3.5893407480  -1.4534983680
Li  2.0171509400  2.3928938320  -4.9042223860
Tc  0.0000000000  0.0000000000  0.0000000000
4
scale = 1.45000
Li  3.5591957665  1.2391771630  -1.5054090240
Li  0.6191883235  3.7175314890  -1.5054090240
Li  2.0891920450  2.4783543260  -5.0793731855
Tc  0.0000000000  0.0000000000  0.0000000000
4
scale = 1.50000
Li  3.6819266550  1.2819074100  -1.5573196800
Li  0.6405396450  3.8457222300  -1.5573196800
Li  2.1612331500  2.5638148200  -5.2545239850
Tc  0.0000000000  0.0000000000  0.0000000000
4
scale = 1.55000
Li  3.8046575435  1.3246376570  -1.6092303360
Li  0.6618909665  3.9739129710  -1.6092303360
Li  2.2332742550  2.6492753140  -5.4296747845
Tc  0.0000000000  0.0000000000  0.0000000000
4
scale = 1.60000
Li  3.9273884320  1.3673679040  -1.6611409920
Li  0.6832422880  4.1021037120  -1.6611409920
Li  2.3053153600  2.7347358080  -5.6048255840
Tc  0.0000000000  0.0000000000  0.0000000000
4
scale = 1.65000
Li  4.0501193205  1.4100981510  -1.7130516480
Li  0.7045936095  4.2302944530  -1.7130516480
Li  2.3773564650  2.8201963020  -5.7799763835
Tc  0.0000000000  0.0000000000  0.0000000000
4
scale = 1.70000
Li  4.1728502090  1.4528283980  -1.7649623040
Li  0.7259449310  4.3584851940  -1.7649623040
Li  2.4493975700  2.9056567960  -5.9551271830
Tc  0.0000000000  0.0000000000  0.0000000000
4
scale = 1.75000
Li  4.2955810975  1.4955586450  -1.8168729600
Li  0.7472962525  4.4866759350  -1.8168729600
Li  2.5214386750  2.9911172900  -6.1302779825
Tc  0.0000000000  0.0000000000  0.0000000000
4
scale = 1.80000
Li  4.4183119860  1.5382888920  -1.8687836160
Li  0.7686475740  4.6148666760  -1.8687836160
Li  2.5934797800  3.0765777840  -6.3054287820
Tc  0.0000000000  0.0000000000  0.0000000000
4
scale = 1.85000
Li  4.5410428745  1.5810191390  -1.9206942720
Li  0.7899988955  4.7430574170  -1.9206942720
Li  2.6655208850  3.1620382780  -6.4805795815
Tc  0.0000000000  0.0000000000  0.0000000000
4
scale = 1.90000
Li  4.6637737630  1.6237493860  -1.9726049280
Li  0.8113502170  4.8712481580  -1.9726049280
Li  2.7375619900  3.2474987720  -6.6557303810
Tc  0.0000000000  0.0000000000  0.0000000000
4
scale = 1.95000
Li  4.7865046515  1.6664796330  -2.0245155840
Li  0.8327015385  4.9994388990  -2.0245155840
Li  2.8096030950  3.3329592660  -6.8308811805
Tc  0.0000000000  0.0000000000  0.0000000000
4
scale = 2.00000
Li  4.9092355400  1.7092098800  -2.0764262400
Li  0.8540528600  5.1276296400  -2.0764262400
Li  2.8816442000  3.4184197600  -7.0060319800
Tc  0.0000000000  0.0000000000  0.0000000000
4
scale = 2.05000
Li  5.0319664285  1.7519401270  -2.1283368960
Li  0.8754041815  5.2558203810  -2.1283368960
Li  2.9536853050  3.5038802540  -7.1811827795
Tc  0.0000000000  0.0000000000  0.0000000000
4
scale = 2.10000
Li  5.1546973170  1.7946703740  -2.1802475520
Li  0.8967555030  5.3840111220  -2.1802475520
Li  3.0257264100  3.5893407480  -7.3563335790
Tc  0.0000000000  0.0000000000  0.0000000000
4
scale = 2.15000
Li  5.2774282055  1.8374006210  -2.2321582080
Li  0.9181068245  5.5122018630  -2.2321582080
Li  3.0977675150  3.6748012420  -7.5314843785
Tc  0.0000000000  0.0000000000  0.0000000000
4
scale = 2.20000
Li  5.4001590940  1.8801308680  -2.2840688640
Li  0.9394581460  5.6403926040  -2.2840688640
Li  3.1698086200  3.7602617360  -7.7066351780
Tc  0.0000000000  0.0000000000  0.0000000000
4
scale = 2.25000
Li  5.5228899825  1.9228611150  -2.3359795200
Li  0.9608094675  5.7685833450  -2.3359795200
Li  3.2418497250  3.8457222300  -7.8817859775
Tc  0.0000000000  0.0000000000  0.0000000000
4
scale = 2.30000
Li  5.6456208710  1.9655913620  -2.3878901760
Li  0.9821607890  5.8967740860  -2.3878901760
Li  3.3138908300  3.9311827240  -8.0569367770
Tc  0.0000000000  0.0000000000  0.0000000000
4
scale = 2.35000
Li  5.7683517595  2.0083216090  -2.4398008320
Li  1.0035121105  6.0249648270  -2.4398008320
Li  3.3859319350  4.0166432180  -8.2320875765
Tc  0.0000000000  0.0000000000  0.0000000000
4
scale = 2.40000
Li  5.8910826480  2.0510518560  -2.4917114880
Li  1.0248634320  6.1531555680  -2.4917114880
Li  3.4579730400  4.1021037120  -8.4072383760
Tc  0.0000000000  0.0000000000  0.0000000000
4
scale = 2.45000
Li  6.0138135365  2.0937821030  -2.5436221440
Li  1.0462147535  6.2813463090  -2.5436221440
Li  3.5300141450  4.1875642060  -8.5823891755
Tc  0.0000000000  0.0000000000  0.0000000000
