4
scale = 0.75000
Li  1.8897181800  0.6567163125  -0.8713129650
Li  0.3475979175  1.9701489300  -0.8713129650
Li  1.1186580450  1.3134326175  -2.8041055950
W   0.0000000000  0.0000000000  0.0000000000
4
scale = 0.80000
Li  2.0156993920  0.7004974000  -0.9294004960
Li  0.3707711120  2.1014921920  -0.9294004960
Li  1.1932352480  1.4009947920  -2.9910459680
W   0.0000000000  0.0000000000  0.0000000000
4
scale = 0.85000
Li  2.1416806040  0.7442784875  -0.9874880270
Li  0.3939443065  2.2328354540  -0.9874880270
Li  1.2678124510  1.4885569665  -3.1779863410
W   0.0000000000  0.0000000000  0.0000000000
4
scale = 0.90000
Li  2.2676618160  0.7880595750  -1.0455755580
Li  0.4171175010  2.3641787160  -1.0455755580
Li  1.3423896540  1.5761191410  -3.3649267140
W   0.0000000000  0.0000000000  0.0000000000
4
scale = 0.95000
Li  2.3936430280  0.8318406625  -1.1036630890
Li  0.4402906955  2.4955219780  -1.1036630890
Li  1.4169668570  1.6636813155  -3.5518670870
W   0.0000000000  0.0000000000  0.0000000000
4
scale = 1.00000
Li  2.5196242400  0.8756217500  -1.1617506200
Li  0.4634638900  2.6268652400  -1.1617506200
Li  1.4915440600  1.7512434900  -3.7388074600
W   0.0000000000  0.0000000000  0.0000000000
4
scale = 1.05000
Li  2.6456054520  0.9194028375  -1.2198381510
Li  0.4866370845  2.7582085020  -1.2198381510
Li  1.5661212630  1.8388056645  -3.9257478330
W   0.0000000000  0.0000000000  0.0000000000
4
scale = 1.10000
Li  2.7715866640  0.9631839250  -1.2779256820
Li  0.5098102790  2.8895517640  -1.2779256820
Li  1.6406984660  1.9263678390  -4.1126882060
W   0.0000000000  0.0000000000  0.0000000000
4
scale = 1.15000
Li  2.8975678760  1.0069650125  -1.3360132130
Li  0.5329834735  3.0208950260  -1.3360132130
Li  1.7152756690  2.0139300135  -4.2996285790
W   0.0000000000  0.0000000000  0.0000000000
4
scale = 1.20000
Li  3.0235490880  1.0507461000  -1.3941007440
Li  0.5561566680  3.1522382880  -1.3941007440
Li  1.7898528720  2.1014921880  -4.4865689520
W   0.0000000000  0.0000000000  0.0000000000
4
scale = 1.25000
Li  3.1495303000  1.0945271875  -1.4521882750
Li  0.5793298625  3.2835815500  -1.4521882750
Li  1.8644300750  2.1890543625  -4.6735093250
W   0.0000000000  0.0000000000  0.0000000000
4
scale = 1.30000
Li  3.2755115120  1.1383082750  -1.5102758060
Li  0.6025030570  3.4149248120  -1.5102758060
Li  1.9390072780  2.2766165370  -4.8604496980
W   0.0000000000  0.0000000000  0.0000000000
4
scale = 1.35000
Li  3.4014927240  1.1820893625  -1.5683633370
Li  0.6256762515  3.5462680740  -1.5683633370
Li  2.0135844810  2.3641787115  -5.0473900710
W   0.0000000000  0.0000000000  0.0000000000
4
scale = 1.40000
Li  3.5274739360  1.2258704500  -1.6264508680
Li  0.6488494460  3.6776113360  -1.6264508680
Li  2.0881616840  2.4517408860  -5.2343304440
W   0.0000000000  0.0000000000  0.0000000000
4
scale = 1.45000
Li  3.6534551480  1.2696515375  -1.6845383990
Li  0.6720226405  3.8089545980  -1.6845383990
Li  2.1627388870  2.5393030605  -5.4212708170
W   0.0000000000  0.0000000000  0.0000000000
4
scale = 1.50000
Li  3.7794363600  1.3134326250  -1.7426259300
Li  0.6951958350  3.9402978600  -1.7426259300
Li  2.2373160900  2.6268652350  -5.6082111900
W   0.0000000000  0.0000000000  0.0000000000
4
scale = 1.55000
Li  3.9054175720  1.3572137125  -1.8007134610
Li  0.7183690295  4.0716411220  -1.8007134610
Li  2.3118932930  2.7144274095  -5.7951515630
W   0.0000000000  0.0000000000  0.0000000000
4
scale = 1.60000
Li  4.0313987840  1.4009948000  -1.8588009920
Li  0.7415422240  4.2029843840  -1.8588009920
Li  2.3864704960  2.8019895840  -5.9820919360
W   0.0000000000  0.0000000000  0.0000000000
4
scale = 1.65000
Li  4.1573799960  1.4447758875  -1.9168885230
Li  0.7647154185  4.3343276460  -1.9168885230
Li  2.4610476990  2.8895517585  -6.1690323090
W   0.0000000000  0.0000000000  0.0000000000
4
scale = 1.70000
Li  4.2833612080  1.4885569750  -1.9749760540
Li  0.7878886130  4.4656709080  -1.9749760540
Li  2.5356249020  2.9771139330  -6.3559726820
W   0.0000000000  0.0000000000  0.0000000000
4
scale = 1.75000
Li  4.4093424200  1.5323380625  -2.0330635850
Li  0.8110618075  4.5970141700  -2.0330635850
Li  2.6102021050  3.0646761075  -6.5429130550
W   0.0000000000  0.0000000000  0.0000000000
4
scale = 1.80000
Li  4.5353236320  1.5761191500  -2.0911511160
Li  0.8342350020  4.7283574320  -2.0911511160
Li  2.6847793080  3.1522382820  -6.7298534280
W   0.0000000000  0.0000000000  0.0000000000
4
scale = 1.85000
Li  4.6613048440  1.6199002375  -2.1492386470
Li  0.8574081965  4.8597006940  -2.1492386470
Li  2.7593565110  3.2398004565  -6.9167938010
W   0.0000000000  0.0000000000  0.0000000000
4
scale = 1.90000
Li  4.7872860560  1.6636813250  -2.2073261780
Li  0.8805813910  4.9910439560  -2.2073261780
Li  2.8339337140  3.3273626310  -7.1037341740
W   0.0000000000  0.0000000000  0.0000000000
4
scale = 1.95000
Li  4.9132672680  1.7074624125  -2.2654137090
Li  0.9037545855  5.1223872180  -2.2654137090
Li  2.9085109170  3.4149248055  -7.2906745470
W   0.0000000000  0.0000000000  0.0000000000
4
scale = 2.00000
Li  5.0392484800  1.7512435000  -2.3235012400
Li  0.9269277800  5.2537304800  -2.3235012400
Li  2.9830881200  3.5024869800  -7.4776149200
W   0.0000000000  0.0000000000  0.0000000000
4
scale = 2.05000
Li  5.1652296920  1.7950245875  -2.3815887710
Li  0.9501009745  5.3850737420  -2.3815887710
Li  3.0576653230  3.5900491545  -7.6645552930
W   0.0000000000  0.0000000000  0.0000000000
4
scale = 2.10000
Li  5.2912109040  1.8388056750  -2.4396763020
Li  0.9732741690  5.5164170040  -2.4396763020
Li  3.1322425260  3.6776113290  -7.8514956660
W   0.0000000000  0.0000000000  0.0000000000
4
scale = 2.15000
Li  5.4171921160  1.8825867625  -2.4977638330
Li  0.9964473635  5.6477602660  -2.4977638330
Li  3.2068197290  3.7651735035  -8.0384360390
W   0.0000000000  0.0000000000  0.0000000000
4
scale = 2.20000
Li  5.5431733280  1.9263678500  -2.5558513640
Li  1.0196205580  5.7791035280  -2.5558513640
Li  3.2813969320  3.8527356780  -8.2253764120
W   0.0000000000  0.0000000000  0.0000000000
4
scale = 2.25000
Li  5.6691545400  1.9701489375  -2.6139388950
Li  1.0427937525  5.9104467900  -2.6139388950
Li  3.3559741350  3.9402978525  -8.4123167850
W   0.0000000000  0.0000000000  0.0000000000
4
scale = 2.30000
Li  5.7951357520  2.0139300250  -2.6720264260
Li  1.0659669470  6.0417900520  -2.6720264260
Li  3.4305513380  4.0278600270  -8.5992571580
W   0.0000000000  0.0000000000  0.0000000000
4
scale = 2.35000
Li  5.9211169640  2.0577111125  -2.7301139570
Li  1.0891401415  6.1731333140  -2.7301139570
Li  3.5051285410  4.1154222015  -8.7861975310
W   0.0000000000  0.0000000000  0.0000000000
4
scale = 2.40000
Li  6.0470981760  2.1014922000  -2.7882014880
Li  1.1123133360  6.3044765760  -2.7882014880
Li  3.5797057440  4.2029843760  -8.9731379040
W   0.0000000000  0.0000000000  0.0000000000
4
scale = 2.45000
Li  6.1730793880  2.1452732875  -2.8462890190
Li  1.1354865305  6.4358198380  -2.8462890190
Li  3.6542829470  4.2905465505  -9.1600782770
W   0.0000000000  0.0000000000  0.0000000000
