8
scale = 0.75000
Li  -0.0000000600  1.3133176650  0.9423822300
Li  1.2788300250  3.5283164100  0.9423822300
Li  -1.2788302575  3.5283164100  0.9423822300
Li  2.4161965575  2.8716575550  2.8271466975
Li  1.1373664725  0.6566588100  2.8271466975
Li  3.6950267550  0.6566588100  2.8271466975
Yb  -0.0000000750  2.7899834850  2.8271466975
Yb  2.4161965725  1.3949917425  0.9423822300
8
scale = 0.80000
Li  -0.0000000640  1.4008721760  1.0052077120
Li  1.3640853600  3.7635375040  1.0052077120
Li  -1.3640856080  3.7635375040  1.0052077120
Li  2.5772763280  3.0631013920  3.0156231440
Li  1.2131909040  0.7004360640  3.0156231440
Li  3.9413618720  0.7004360640  3.0156231440
Yb  -0.0000000800  2.9759823840  3.0156231440
Yb  2.5772763440  1.4879911920  1.0052077120
8
scale = 0.85000
Li  -0.0000000680  1.4884266870  1.0680331940
Li  1.4493406950  3.9987585980  1.0680331940
Li  -1.4493409585  3.9987585980  1.0680331940
Li  2.7383560985  3.2545452290  3.2040995905
Li  1.2890153355  0.7442133180  3.2040995905
Li  4.1876969890  0.7442133180  3.2040995905
Yb  -0.0000000850  3.1619812830  3.2040995905
Yb  2.7383561155  1.5809906415  1.0680331940
8
scale = 0.90000
Li  -0.0000000720  1.5759811980  1.1308586760
Li  1.5345960300  4.2339796920  1.1308586760
Li  -1.5345963090  4.2339796920  1.1308586760
Li  2.8994358690  3.4459890660  3.3925760370
Li  1.3648397670  0.7879905720  3.3925760370
Li  4.4340321060  0.7879905720  3.3925760370
Yb  -0.0000000900  3.3479801820  3.3925760370
Yb  2.8994358870  1.6739900910  1.1308586760
8
scale = 0.95000
Li  -0.0000000760  1.6635357090  1.1936841580
Li  1.6198513650  4.4692007860  1.1936841580
Li  -1.6198516595  4.4692007860  1.1936841580
Li  3.0605156395  3.6374329030  3.5810524835
Li  1.4406641985  0.8317678260  3.5810524835
Li  4.6803672230  0.8317678260  3.5810524835
Yb  -0.0000000950  3.5339790810  3.5810524835
Yb  3.0605156585  1.7669895405  1.1936841580
8
scale = 1.00000
Li  -0.0000000800  1.7510902200  1.2565096400
Li  1.7051067000  4.7044218800  1.2565096400
Li  -1.7051070100  4.7044218800  1.2565096400
Li  3.2215954100  3.8288767400  3.7695289300
Li  1.5164886300  0.8755450800  3.7695289300
Li  4.9267023400  0.8755450800  3.7695289300
Yb  -0.0000001000  3.7199779800  3.7695289300
Yb  3.2215954300  1.8599889900  1.2565096400
8
scale = 1.05000
Li  -0.0000000840  1.8386447310  1.3193351220
Li  1.7903620350  4.9396429740  1.3193351220
Li  -1.7903623605  4.9396429740  1.3193351220
Li  3.3826751805  4.0203205770  3.9580053765
Li  1.5923130615  0.9193223340  3.9580053765
Li  5.1730374570  0.9193223340  3.9580053765
Yb  -0.0000001050  3.9059768790  3.9580053765
Yb  3.3826752015  1.9529884395  1.3193351220
8
scale = 1.10000
Li  -0.0000000880  1.9261992420  1.3821606040
Li  1.8756173700  5.1748640680  1.3821606040
Li  -1.8756177110  5.1748640680  1.3821606040
Li  3.5437549510  4.2117644140  4.1464818230
Li  1.6681374930  0.9630995880  4.1464818230
Li  5.4193725740  0.9630995880  4.1464818230
Yb  -0.0000001100  4.0919757780  4.1464818230
Yb  3.5437549730  2.0459878890  1.3821606040
8
scale = 1.15000
Li  -0.0000000920  2.0137537530  1.4449860860
Li  1.9608727050  5.4100851620  1.4449860860
Li  -1.9608730615  5.4100851620  1.4449860860
Li  3.7048347215  4.4032082510  4.3349582695
Li  1.7439619245  1.0068768420  4.3349582695
Li  5.6657076910  1.0068768420  4.3349582695
Yb  -0.0000001150  4.2779746770  4.3349582695
Yb  3.7048347445  2.1389873385  1.4449860860
8
scale = 1.20000
Li  -0.0000000960  2.1013082640  1.5078115680
Li  2.0461280400  5.6453062560  1.5078115680
Li  -2.0461284120  5.6453062560  1.5078115680
Li  3.8659144920  4.5946520880  4.5234347160
Li  1.8197863560  1.0506540960  4.5234347160
Li  5.9120428080  1.0506540960  4.5234347160
Yb  -0.0000001200  4.4639735760  4.5234347160
Yb  3.8659145160  2.2319867880  1.5078115680
8
scale = 1.25000
Li  -0.0000001000  2.1888627750  1.5706370500
Li  2.1313833750  5.8805273500  1.5706370500
Li  -2.1313837625  5.8805273500  1.5706370500
Li  4.0269942625  4.7860959250  4.7119111625
Li  1.8956107875  1.0944313500  4.7119111625
Li  6.1583779250  1.0944313500  4.7119111625
Yb  -0.0000001250  4.6499724750  4.7119111625
Yb  4.0269942875  2.3249862375  1.5706370500
8
scale = 1.30000
Li  -0.0000001040  2.2764172860  1.6334625320
Li  2.2166387100  6.1157484440  1.6334625320
Li  -2.2166391130  6.1157484440  1.6334625320
Li  4.1880740330  4.9775397620  4.9003876090
Li  1.9714352190  1.1382086040  4.9003876090
Li  6.4047130420  1.1382086040  4.9003876090
Yb  -0.0000001300  4.8359713740  4.9003876090
Yb  4.1880740590  2.4179856870  1.6334625320
8
scale = 1.35000
Li  -0.0000001080  2.3639717970  1.6962880140
Li  2.3018940450  6.3509695380  1.6962880140
Li  -2.3018944635  6.3509695380  1.6962880140
Li  4.3491538035  5.1689835990  5.0888640555
Li  2.0472596505  1.1819858580  5.0888640555
Li  6.6510481590  1.1819858580  5.0888640555
Yb  -0.0000001350  5.0219702730  5.0888640555
Yb  4.3491538305  2.5109851365  1.6962880140
8
scale = 1.40000
Li  -0.0000001120  2.4515263080  1.7591134960
Li  2.3871493800  6.5861906320  1.7591134960
Li  -2.3871498140  6.5861906320  1.7591134960
Li  4.5102335740  5.3604274360  5.2773405020
Li  2.1230840820  1.2257631120  5.2773405020
Li  6.8973832760  1.2257631120  5.2773405020
Yb  -0.0000001400  5.2079691720  5.2773405020
Yb  4.5102336020  2.6039845860  1.7591134960
8
scale = 1.45000
Li  -0.0000001160  2.5390808190  1.8219389780
Li  2.4724047150  6.8214117260  1.8219389780
Li  -2.4724051645  6.8214117260  1.8219389780
Li  4.6713133445  5.5518712730  5.4658169485
Li  2.1989085135  1.2695403660  5.4658169485
Li  7.1437183930  1.2695403660  5.4658169485
Yb  -0.0000001450  5.3939680710  5.4658169485
Yb  4.6713133735  2.6969840355  1.8219389780
8
scale = 1.50000
Li  -0.0000001200  2.6266353300  1.8847644600
Li  2.5576600500  7.0566328200  1.8847644600
Li  -2.5576605150  7.0566328200  1.8847644600
Li  4.8323931150  5.7433151100  5.6542933950
Li  2.2747329450  1.3133176200  5.6542933950
Li  7.3900535100  1.3133176200  5.6542933950
Yb  -0.0000001500  5.5799669700  5.6542933950
Yb  4.8323931450  2.7899834850  1.8847644600
8
scale = 1.55000
Li  -0.0000001240  2.7141898410  1.9475899420
Li  2.6429153850  7.2918539140  1.9475899420
Li  -2.6429158655  7.2918539140  1.9475899420
Li  4.9934728855  5.9347589470  5.8427698415
Li  2.3505573765  1.3570948740  5.8427698415
Li  7.6363886270  1.3570948740  5.8427698415
Yb  -0.0000001550  5.7659658690  5.8427698415
Yb  4.9934729165  2.8829829345  1.9475899420
8
scale = 1.60000
Li  -0.0000001280  2.8017443520  2.0104154240
Li  2.7281707200  7.5270750080  2.0104154240
Li  -2.7281712160  7.5270750080  2.0104154240
Li  5.1545526560  6.1262027840  6.0312462880
Li  2.4263818080  1.4008721280  6.0312462880
Li  7.8827237440  1.4008721280  6.0312462880
Yb  -0.0000001600  5.9519647680  6.0312462880
Yb  5.1545526880  2.9759823840  2.0104154240
8
scale = 1.65000
Li  -0.0000001320  2.8892988630  2.0732409060
Li  2.8134260550  7.7622961020  2.0732409060
Li  -2.8134265665  7.7622961020  2.0732409060
Li  5.3156324265  6.3176466210  6.2197227345
Li  2.5022062395  1.4446493820  6.2197227345
Li  8.1290588610  1.4446493820  6.2197227345
Yb  -0.0000001650  6.1379636670  6.2197227345
Yb  5.3156324595  3.0689818335  2.0732409060
8
scale = 1.70000
Li  -0.0000001360  2.9768533740  2.1360663880
Li  2.8986813900  7.9975171960  2.1360663880
Li  -2.8986819170  7.9975171960  2.1360663880
Li  5.4767121970  6.5090904580  6.4081991810
Li  2.5780306710  1.4884266360  6.4081991810
Li  8.3753939780  1.4884266360  6.4081991810
Yb  -0.0000001700  6.3239625660  6.4081991810
Yb  5.4767122310  3.1619812830  2.1360663880
8
scale = 1.75000
Li  -0.0000001400  3.0644078850  2.1988918700
Li  2.9839367250  8.2327382900  2.1988918700
Li  -2.9839372675  8.2327382900  2.1988918700
Li  5.6377919675  6.7005342950  6.5966756275
Li  2.6538551025  1.5322038900  6.5966756275
Li  8.6217290950  1.5322038900  6.5966756275
Yb  -0.0000001750  6.5099614650  6.5966756275
Yb  5.6377920025  3.2549807325  2.1988918700
8
scale = 1.80000
Li  -0.0000001440  3.1519623960  2.2617173520
Li  3.0691920600  8.4679593840  2.2617173520
Li  -3.0691926180  8.4679593840  2.2617173520
Li  5.7988717380  6.8919781320  6.7851520740
Li  2.7296795340  1.5759811440  6.7851520740
Li  8.8680642120  1.5759811440  6.7851520740
Yb  -0.0000001800  6.6959603640  6.7851520740
Yb  5.7988717740  3.3479801820  2.2617173520
8
scale = 1.85000
Li  -0.0000001480  3.2395169070  2.3245428340
Li  3.1544473950  8.7031804780  2.3245428340
Li  -3.1544479685  8.7031804780  2.3245428340
Li  5.9599515085  7.0834219690  6.9736285205
Li  2.8055039655  1.6197583980  6.9736285205
Li  9.1143993290  1.6197583980  6.9736285205
Yb  -0.0000001850  6.8819592630  6.9736285205
Yb  5.9599515455  3.4409796315  2.3245428340
8
scale = 1.90000
Li  -0.0000001520  3.3270714180  2.3873683160
Li  3.2397027300  8.9384015720  2.3873683160
Li  -3.2397033190  8.9384015720  2.3873683160
Li  6.1210312790  7.2748658060  7.1621049670
Li  2.8813283970  1.6635356520  7.1621049670
Li  9.3607344460  1.6635356520  7.1621049670
Yb  -0.0000001900  7.0679581620  7.1621049670
Yb  6.1210313170  3.5339790810  2.3873683160
8
scale = 1.95000
Li  -0.0000001560  3.4146259290  2.4501937980
Li  3.3249580650  9.1736226660  2.4501937980
Li  -3.3249586695  9.1736226660  2.4501937980
Li  6.2821110495  7.4663096430  7.3505814135
Li  2.9571528285  1.7073129060  7.3505814135
Li  9.6070695630  1.7073129060  7.3505814135
Yb  -0.0000001950  7.2539570610  7.3505814135
Yb  6.2821110885  3.6269785305  2.4501937980
8
scale = 2.00000
Li  -0.0000001600  3.5021804400  2.5130192800
Li  3.4102134000  9.4088437600  2.5130192800
Li  -3.4102140200  9.4088437600  2.5130192800
Li  6.4431908200  7.6577534800  7.5390578600
Li  3.0329772600  1.7510901600  7.5390578600
Li  9.8534046800  1.7510901600  7.5390578600
Yb  -0.0000002000  7.4399559600  7.5390578600
Yb  6.4431908600  3.7199779800  2.5130192800
8
scale = 2.05000
Li  -0.0000001640  3.5897349510  2.5758447620
Li  3.4954687350  9.6440648540  2.5758447620
Li  -3.4954693705  9.6440648540  2.5758447620
Li  6.6042705905  7.8491973170  7.7275343065
Li  3.1088016915  1.7948674140  7.7275343065
Li  10.0997397970  1.7948674140  7.7275343065
Yb  -0.0000002050  7.6259548590  7.7275343065
Yb  6.6042706315  3.8129774295  2.5758447620
8
scale = 2.10000
Li  -0.0000001680  3.6772894620  2.6386702440
Li  3.5807240700  9.8792859480  2.6386702440
Li  -3.5807247210  9.8792859480  2.6386702440
Li  6.7653503610  8.0406411540  7.9160107530
Li  3.1846261230  1.8386446680  7.9160107530
Li  10.3460749140  1.8386446680  7.9160107530
Yb  -0.0000002100  7.8119537580  7.9160107530
Yb  6.7653504030  3.9059768790  2.6386702440
8
scale = 2.15000
Li  -0.0000001720  3.7648439730  2.7014957260
Li  3.6659794050  10.1145070420  2.7014957260
Li  -3.6659800715  10.1145070420  2.7014957260
Li  6.9264301315  8.2320849910  8.1044871995
Li  3.2604505545  1.8824219220  8.1044871995
Li  10.5924100310  1.8824219220  8.1044871995
Yb  -0.0000002150  7.9979526570  8.1044871995
Yb  6.9264301745  3.9989763285  2.7014957260
8
scale = 2.20000
Li  -0.0000001760  3.8523984840  2.7643212080
Li  3.7512347400  10.3497281360  2.7643212080
Li  -3.7512354220  10.3497281360  2.7643212080
Li  7.0875099020  8.4235288280  8.2929636460
Li  3.3362749860  1.9261991760  8.2929636460
Li  10.8387451480  1.9261991760  8.2929636460
Yb  -0.0000002200  8.1839515560  8.2929636460
Yb  7.0875099460  4.0919757780  2.7643212080
8
scale = 2.25000
Li  -0.0000001800  3.9399529950  2.8271466900
Li  3.8364900750  10.5849492300  2.8271466900
Li  -3.8364907725  10.5849492300  2.8271466900
Li  7.2485896725  8.6149726650  8.4814400925
Li  3.4120994175  1.9699764300  8.4814400925
Li  11.0850802650  1.9699764300  8.4814400925
Yb  -0.0000002250  8.3699504550  8.4814400925
Yb  7.2485897175  4.1849752275  2.8271466900
8
scale = 2.30000
Li  -0.0000001840  4.0275075060  2.8899721720
Li  3.9217454100  10.8201703240  2.8899721720
Li  -3.9217461230  10.8201703240  2.8899721720
Li  7.4096694430  8.8064165020  8.6699165390
Li  3.4879238490  2.0137536840  8.6699165390
Li  11.3314153820  2.0137536840  8.6699165390
Yb  -0.0000002300  8.5559493540  8.6699165390
Yb  7.4096694890  4.2779746770  2.8899721720
8
scale = 2.35000
Li  -0.0000001880  4.1150620170  2.9527976540
Li  4.0070007450  11.0553914180  2.9527976540
Li  -4.0070014735  11.0553914180  2.9527976540
Li  7.5707492135  8.9978603390  8.8583929855
Li  3.5637482805  2.0575309380  8.8583929855
Li  11.5777504990  2.0575309380  8.8583929855
Yb  -0.0000002350  8.7419482530  8.8583929855
Yb  7.5707492605  4.3709741265  2.9527976540
8
scale = 2.40000
Li  -0.0000001920  4.2026165280  3.0156231360
Li  4.0922560800  11.2906125120  3.0156231360
Li  -4.0922568240  11.2906125120  3.0156231360
Li  7.7318289840  9.1893041760  9.0468694320
Li  3.6395727120  2.1013081920  9.0468694320
Li  11.8240856160  2.1013081920  9.0468694320
Yb  -0.0000002400  8.9279471520  9.0468694320
Yb  7.7318290320  4.4639735760  3.0156231360
8
scale = 2.45000
Li  -0.0000001960  4.2901710390  3.0784486180
Li  4.1775114150  11.5258336060  3.0784486180
Li  -4.1775121745  11.5258336060  3.0784486180
Li  7.8929087545  9.3807480130  9.2353458785
Li  3.7153971435  2.1450854460  9.2353458785
Li  12.0704207330  2.1450854460  9.2353458785
Yb  -0.0000002450  9.1139460510  9.2353458785
Yb  7.8929088035  4.5569730255  3.0784486180
