4
scale = 0.75000
Li  1.0860423900  0.7679479350  1.8810806025
Li  3.2581271700  2.3038438125  5.6432418000
Li  2.1720847800  1.5358958775  3.7621611975
Yb  0.0000000000  0.0000000000  0.0000000000
4
scale = 0.80000
Li  1.1584452160  0.8191444640  2.0064859760
Li  3.4753356480  2.4574334000  6.0194579200
Li  2.3168904320  1.6382889360  4.0129719440
Yb  0.0000000000  0.0000000000  0.0000000000
4
scale = 0.85000
Li  1.2308480420  0.8703409930  2.1318913495
Li  3.6925441260  2.6110229875  6.3956740400
Li  2.4616960840  1.7406819945  4.2637826905
Yb  0.0000000000  0.0000000000  0.0000000000
4
scale = 0.90000
Li  1.3032508680  0.9215375220  2.2572967230
Li  3.9097526040  2.7646125750  6.7718901600
Li  2.6065017360  1.8430750530  4.5145934370
Yb  0.0000000000  0.0000000000  0.0000000000
4
scale = 0.95000
Li  1.3756536940  0.9727340510  2.3827020965
Li  4.1269610820  2.9182021625  7.1481062800
Li  2.7513073880  1.9454681115  4.7654041835
Yb  0.0000000000  0.0000000000  0.0000000000
4
scale = 1.00000
Li  1.4480565200  1.0239305800  2.5081074700
Li  4.3441695600  3.0717917500  7.5243224000
Li  2.8961130400  2.0478611700  5.0162149300
Yb  0.0000000000  0.0000000000  0.0000000000
4
scale = 1.05000
Li  1.5204593460  1.0751271090  2.6335128435
Li  4.5613780380  3.2253813375  7.9005385200
Li  3.0409186920  2.1502542285  5.2670256765
Yb  0.0000000000  0.0000000000  0.0000000000
4
scale = 1.10000
Li  1.5928621720  1.1263236380  2.7589182170
Li  4.7785865160  3.3789709250  8.2767546400
Li  3.1857243440  2.2526472870  5.5178364230
Yb  0.0000000000  0.0000000000  0.0000000000
4
scale = 1.15000
Li  1.6652649980  1.1775201670  2.8843235905
Li  4.9957949940  3.5325605125  8.6529707600
Li  3.3305299960  2.3550403455  5.7686471695
Yb  0.0000000000  0.0000000000  0.0000000000
4
scale = 1.20000
Li  1.7376678240  1.2287166960  3.0097289640
Li  5.2130034720  3.6861501000  9.0291868800
Li  3.4753356480  2.4574334040  6.0194579160
Yb  0.0000000000  0.0000000000  0.0000000000
4
scale = 1.25000
Li  1.8100706500  1.2799132250  3.1351343375
Li  5.4302119500  3.8397396875  9.4054030000
Li  3.6201413000  2.5598264625  6.2702686625
Yb  0.0000000000  0.0000000000  0.0000000000
4
scale = 1.30000
Li  1.8824734760  1.3311097540  3.2605397110
Li  5.6474204280  3.9933292750  9.7816191200
Li  3.7649469520  2.6622195210  6.5210794090
Yb  0.0000000000  0.0000000000  0.0000000000
4
scale = 1.35000
Li  1.9548763020  1.3823062830  3.3859450845
Li  5.8646289060  4.1469188625  10.1578352400
Li  3.9097526040  2.7646125795  6.7718901555
Yb  0.0000000000  0.0000000000  0.0000000000
4
scale = 1.40000
Li  2.0272791280  1.4335028120  3.5113504580
Li  6.0818373840  4.3005084500  10.5340513600
Li  4.0545582560  2.8670056380  7.0227009020
Yb  0.0000000000  0.0000000000  0.0000000000
4
scale = 1.45000
Li  2.0996819540  1.4846993410  3.6367558315
Li  6.2990458620  4.4540980375  10.9102674800
Li  4.1993639080  2.9693986965  7.2735116485
Yb  0.0000000000  0.0000000000  0.0000000000
4
scale = 1.50000
Li  2.1720847800  1.5358958700  3.7621612050
Li  6.5162543400  4.6076876250  11.2864836000
Li  4.3441695600  3.0717917550  7.5243223950
Yb  0.0000000000  0.0000000000  0.0000000000
4
scale = 1.55000
Li  2.2444876060  1.5870923990  3.8875665785
Li  6.7334628180  4.7612772125  11.6626997200
Li  4.4889752120  3.1741848135  7.7751331415
Yb  0.0000000000  0.0000000000  0.0000000000
4
scale = 1.60000
Li  2.3168904320  1.6382889280  4.0129719520
Li  6.9506712960  4.9148668000  12.0389158400
Li  4.6337808640  3.2765778720  8.0259438880
Yb  0.0000000000  0.0000000000  0.0000000000
4
scale = 1.65000
Li  2.3892932580  1.6894854570  4.1383773255
Li  7.1678797740  5.0684563875  12.4151319600
Li  4.7785865160  3.3789709305  8.2767546345
Yb  0.0000000000  0.0000000000  0.0000000000
4
scale = 1.70000
Li  2.4616960840  1.7406819860  4.2637826990
Li  7.3850882520  5.2220459750  12.7913480800
Li  4.9233921680  3.4813639890  8.5275653810
Yb  0.0000000000  0.0000000000  0.0000000000
4
scale = 1.75000
Li  2.5340989100  1.7918785150  4.3891880725
Li  7.6022967300  5.3756355625  13.1675642000
Li  5.0681978200  3.5837570475  8.7783761275
Yb  0.0000000000  0.0000000000  0.0000000000
4
scale = 1.80000
Li  2.6065017360  1.8430750440  4.5145934460
Li  7.8195052080  5.5292251500  13.5437803200
Li  5.2130034720  3.6861501060  9.0291868740
Yb  0.0000000000  0.0000000000  0.0000000000
4
scale = 1.85000
Li  2.6789045620  1.8942715730  4.6399988195
Li  8.0367136860  5.6828147375  13.9199964400
Li  5.3578091240  3.7885431645  9.2799976205
Yb  0.0000000000  0.0000000000  0.0000000000
4
scale = 1.90000
Li  2.7513073880  1.9454681020  4.7654041930
Li  8.2539221640  5.8364043250  14.2962125600
Li  5.5026147760  3.8909362230  9.5308083670
Yb  0.0000000000  0.0000000000  0.0000000000
4
scale = 1.95000
Li  2.8237102140  1.9966646310  4.8908095665
Li  8.4711306420  5.9899939125  14.6724286800
Li  5.6474204280  3.9933292815  9.7816191135
Yb  0.0000000000  0.0000000000  0.0000000000
4
scale = 2.00000
Li  2.8961130400  2.0478611600  5.0162149400
Li  8.6883391200  6.1435835000  15.0486448000
Li  5.7922260800  4.0957223400  10.0324298600
Yb  0.0000000000  0.0000000000  0.0000000000
4
scale = 2.05000
Li  2.9685158660  2.0990576890  5.1416203135
Li  8.9055475980  6.2971730875  15.4248609200
Li  5.9370317320  4.1981153985  10.2832406065
Yb  0.0000000000  0.0000000000  0.0000000000
4
scale = 2.10000
Li  3.0409186920  2.1502542180  5.2670256870
Li  9.1227560760  6.4507626750  15.8010770400
Li  6.0818373840  4.3005084570  10.5340513530
Yb  0.0000000000  0.0000000000  0.0000000000
4
scale = 2.15000
Li  3.1133215180  2.2014507470  5.3924310605
Li  9.3399645540  6.6043522625  16.1772931600
Li  6.2266430360  4.4029015155  10.7848620995
Yb  0.0000000000  0.0000000000  0.0000000000
4
scale = 2.20000
Li  3.1857243440  2.2526472760  5.5178364340
Li  9.5571730320  6.7579418500  16.5535092800
Li  6.3714486880  4.5052945740  11.0356728460
Yb  0.0000000000  0.0000000000  0.0000000000
4
scale = 2.25000
Li  3.2581271700  2.3038438050  5.6432418075
Li  9.7743815100  6.9115314375  16.9297254000
Li  6.5162543400  4.6076876325  11.2864835925
Yb  0.0000000000  0.0000000000  0.0000000000
4
scale = 2.30000
Li  3.3305299960  2.3550403340  5.7686471810
Li  9.9915899880  7.0651210250  17.3059415200
Li  6.6610599920  4.7100806910  11.5372943390
Yb  0.0000000000  0.0000000000  0.0000000000
4
scale = 2.35000
Li  3.4029328220  2.4062368630  5.8940525545
Li  10.2087984660  7.2187106125  17.6821576400
Li  6.8058656440  4.8124737495  11.7881050855
Yb  0.0000000000  0.0000000000  0.0000000000
4
scale = 2.40000
Li  3.4753356480  2.4574333920  6.0194579280
Li  10.4260069440  7.3723002000  18.0583737600
Li  6.9506712960  4.9148668080  12.0389158320
Yb  0.0000000000  0.0000000000  0.0000000000
4
scale = 2.45000
Li  3.5477384740  2.5086299210  6.1448633015
Li  10.6432154220  7.5258897875  18.4345898800
Li  7.0954769480  5.0172598665  12.2897265785
Yb  0.0000000000  0.0000000000  0.0000000000
