4
scale = 0.75000
Li  1.9390212825  0.6841106400  -0.2395694925
Li  0.1255222275  2.0523291825  -0.2395694925
Li  1.0322727825  1.3682212800  -1.9701775500
Zn  0.0000000000  0.0000000000  0.0000000000
4
scale = 0.80000
Li  2.0682893680  0.7297180160  -0.2555407920
Li  0.1338903760  2.1891511280  -0.2555407920
Li  1.1010909680  1.4594360320  -2.1015227200
Zn  0.0000000000  0.0000000000  0.0000000000
4
scale = 0.85000
Li  2.1975574535  0.7753253920  -0.2715120915
Li  0.1422585245  2.3259730735  -0.2715120915
Li  1.1699091535  1.5506507840  -2.2328678900
Zn  0.0000000000  0.0000000000  0.0000000000
4
scale = 0.90000
Li  2.3268255390  0.8209327680  -0.2874833910
Li  0.1506266730  2.4627950190  -0.2874833910
Li  1.2387273390  1.6418655360  -2.3642130600
Zn  0.0000000000  0.0000000000  0.0000000000
4
scale = 0.95000
Li  2.4560936245  0.8665401440  -0.3034546905
Li  0.1589948215  2.5996169645  -0.3034546905
Li  1.3075455245  1.7330802880  -2.4955582300
Zn  0.0000000000  0.0000000000  0.0000000000
4
scale = 1.00000
Li  2.5853617100  0.9121475200  -0.3194259900
Li  0.1673629700  2.7364389100  -0.3194259900
Li  1.3763637100  1.8242950400  -2.6269034000
Zn  0.0000000000  0.0000000000  0.0000000000
4
scale = 1.05000
Li  2.7146297955  0.9577548960  -0.3353972895
Li  0.1757311185  2.8732608555  -0.3353972895
Li  1.4451818955  1.9155097920  -2.7582485700
Zn  0.0000000000  0.0000000000  0.0000000000
4
scale = 1.10000
Li  2.8438978810  1.0033622720  -0.3513685890
Li  0.1840992670  3.0100828010  -0.3513685890
Li  1.5140000810  2.0067245440  -2.8895937400
Zn  0.0000000000  0.0000000000  0.0000000000
4
scale = 1.15000
Li  2.9731659665  1.0489696480  -0.3673398885
Li  0.1924674155  3.1469047465  -0.3673398885
Li  1.5828182665  2.0979392960  -3.0209389100
Zn  0.0000000000  0.0000000000  0.0000000000
4
scale = 1.20000
Li  3.1024340520  1.0945770240  -0.3833111880
Li  0.2008355640  3.2837266920  -0.3833111880
Li  1.6516364520  2.1891540480  -3.1522840800
Zn  0.0000000000  0.0000000000  0.0000000000
4
scale = 1.25000
Li  3.2317021375  1.1401844000  -0.3992824875
Li  0.2092037125  3.4205486375  -0.3992824875
Li  1.7204546375  2.2803688000  -3.2836292500
Zn  0.0000000000  0.0000000000  0.0000000000
4
scale = 1.30000
Li  3.3609702230  1.1857917760  -0.4152537870
Li  0.2175718610  3.5573705830  -0.4152537870
Li  1.7892728230  2.3715835520  -3.4149744200
Zn  0.0000000000  0.0000000000  0.0000000000
4
scale = 1.35000
Li  3.4902383085  1.2313991520  -0.4312250865
Li  0.2259400095  3.6941925285  -0.4312250865
Li  1.8580910085  2.4627983040  -3.5463195900
Zn  0.0000000000  0.0000000000  0.0000000000
4
scale = 1.40000
Li  3.6195063940  1.2770065280  -0.4471963860
Li  0.2343081580  3.8310144740  -0.4471963860
Li  1.9269091940  2.5540130560  -3.6776647600
Zn  0.0000000000  0.0000000000  0.0000000000
4
scale = 1.45000
Li  3.7487744795  1.3226139040  -0.4631676855
Li  0.2426763065  3.9678364195  -0.4631676855
Li  1.9957273795  2.6452278080  -3.8090099300
Zn  0.0000000000  0.0000000000  0.0000000000
4
scale = 1.50000
Li  3.8780425650  1.3682212800  -0.4791389850
Li  0.2510444550  4.1046583650  -0.4791389850
Li  2.0645455650  2.7364425600  -3.9403551000
Zn  0.0000000000  0.0000000000  0.0000000000
4
scale = 1.55000
Li  4.0073106505  1.4138286560  -0.4951102845
Li  0.2594126035  4.2414803105  -0.4951102845
Li  2.1333637505  2.8276573120  -4.0717002700
Zn  0.0000000000  0.0000000000  0.0000000000
4
scale = 1.60000
Li  4.1365787360  1.4594360320  -0.5110815840
Li  0.2677807520  4.3783022560  -0.5110815840
Li  2.2021819360  2.9188720640  -4.2030454400
Zn  0.0000000000  0.0000000000  0.0000000000
4
scale = 1.65000
Li  4.2658468215  1.5050434080  -0.5270528835
Li  0.2761489005  4.5151242015  -0.5270528835
Li  2.2710001215  3.0100868160  -4.3343906100
Zn  0.0000000000  0.0000000000  0.0000000000
4
scale = 1.70000
Li  4.3951149070  1.5506507840  -0.5430241830
Li  0.2845170490  4.6519461470  -0.5430241830
Li  2.3398183070  3.1013015680  -4.4657357800
Zn  0.0000000000  0.0000000000  0.0000000000
4
scale = 1.75000
Li  4.5243829925  1.5962581600  -0.5589954825
Li  0.2928851975  4.7887680925  -0.5589954825
Li  2.4086364925  3.1925163200  -4.5970809500
Zn  0.0000000000  0.0000000000  0.0000000000
4
scale = 1.80000
Li  4.6536510780  1.6418655360  -0.5749667820
Li  0.3012533460  4.9255900380  -0.5749667820
Li  2.4774546780  3.2837310720  -4.7284261200
Zn  0.0000000000  0.0000000000  0.0000000000
4
scale = 1.85000
Li  4.7829191635  1.6874729120  -0.5909380815
Li  0.3096214945  5.0624119835  -0.5909380815
Li  2.5462728635  3.3749458240  -4.8597712900
Zn  0.0000000000  0.0000000000  0.0000000000
4
scale = 1.90000
Li  4.9121872490  1.7330802880  -0.6069093810
Li  0.3179896430  5.1992339290  -0.6069093810
Li  2.6150910490  3.4661605760  -4.9911164600
Zn  0.0000000000  0.0000000000  0.0000000000
4
scale = 1.95000
Li  5.0414553345  1.7786876640  -0.6228806805
Li  0.3263577915  5.3360558745  -0.6228806805
Li  2.6839092345  3.5573753280  -5.1224616300
Zn  0.0000000000  0.0000000000  0.0000000000
4
scale = 2.00000
Li  5.1707234200  1.8242950400  -0.6388519800
Li  0.3347259400  5.4728778200  -0.6388519800
Li  2.7527274200  3.6485900800  -5.2538068000
Zn  0.0000000000  0.0000000000  0.0000000000
4
scale = 2.05000
Li  5.2999915055  1.8699024160  -0.6548232795
Li  0.3430940885  5.6096997655  -0.6548232795
Li  2.8215456055  3.7398048320  -5.3851519700
Zn  0.0000000000  0.0000000000  0.0000000000
4
scale = 2.10000
Li  5.4292595910  1.9155097920  -0.6707945790
Li  0.3514622370  5.7465217110  -0.6707945790
Li  2.8903637910  3.8310195840  -5.5164971400
Zn  0.0000000000  0.0000000000  0.0000000000
4
scale = 2.15000
Li  5.5585276765  1.9611171680  -0.6867658785
Li  0.3598303855  5.8833436565  -0.6867658785
Li  2.9591819765  3.9222343360  -5.6478423100
Zn  0.0000000000  0.0000000000  0.0000000000
4
scale = 2.20000
Li  5.6877957620  2.0067245440  -0.7027371780
Li  0.3681985340  6.0201656020  -0.7027371780
Li  3.0280001620  4.0134490880  -5.7791874800
Zn  0.0000000000  0.0000000000  0.0000000000
4
scale = 2.25000
Li  5.8170638475  2.0523319200  -0.7187084775
Li  0.3765666825  6.1569875475  -0.7187084775
Li  3.0968183475  4.1046638400  -5.9105326500
Zn  0.0000000000  0.0000000000  0.0000000000
4
scale = 2.30000
Li  5.9463319330  2.0979392960  -0.7346797770
Li  0.3849348310  6.2938094930  -0.7346797770
Li  3.1656365330  4.1958785920  -6.0418778200
Zn  0.0000000000  0.0000000000  0.0000000000
4
scale = 2.35000
Li  6.0756000185  2.1435466720  -0.7506510765
Li  0.3933029795  6.4306314385  -0.7506510765
Li  3.2344547185  4.2870933440  -6.1732229900
Zn  0.0000000000  0.0000000000  0.0000000000
4
scale = 2.40000
Li  6.2048681040  2.1891540480  -0.7666223760
Li  0.4016711280  6.5674533840  -0.7666223760
Li  3.3032729040  4.3783080960  -6.3045681600
Zn  0.0000000000  0.0000000000  0.0000000000
4
scale = 2.45000
Li  6.3341361895  2.2347614240  -0.7825936755
Li  0.4100392765  6.7042753295  -0.7825936755
Li  3.3720910895  4.4695228480  -6.4359133300
Zn  0.0000000000  0.0000000000  0.0000000000
