4
scale = 0.75000
Li  0.0000000000  0.0000000000  0.0000000000
Li  1.9423564575  1.3734534225  3.3642600675
Li  0.9711840525  0.6867308325  1.6821401250
Zn  2.9135405100  2.0601842550  5.0464001925
4
scale = 0.80000
Li  0.0000000000  0.0000000000  0.0000000000
Li  2.0718468880  1.4650169840  3.5885440720
Li  1.0359296560  0.7325128880  1.7942828000
Zn  3.1077765440  2.1975298720  5.3828268720
4
scale = 0.85000
Li  0.0000000000  0.0000000000  0.0000000000
Li  2.2013373185  1.5565805455  3.8128280765
Li  1.1006752595  0.7782949435  1.9064254750
Zn  3.3020125780  2.3348754890  5.7192535515
4
scale = 0.90000
Li  0.0000000000  0.0000000000  0.0000000000
Li  2.3308277490  1.6481441070  4.0371120810
Li  1.1654208630  0.8240769990  2.0185681500
Zn  3.4962486120  2.4722211060  6.0556802310
4
scale = 0.95000
Li  0.0000000000  0.0000000000  0.0000000000
Li  2.4603181795  1.7397076685  4.2613960855
Li  1.2301664665  0.8698590545  2.1307108250
Zn  3.6904846460  2.6095667230  6.3921069105
4
scale = 1.00000
Li  0.0000000000  0.0000000000  0.0000000000
Li  2.5898086100  1.8312712300  4.4856800900
Li  1.2949120700  0.9156411100  2.2428535000
Zn  3.8847206800  2.7469123400  6.7285335900
4
scale = 1.05000
Li  0.0000000000  0.0000000000  0.0000000000
Li  2.7192990405  1.9228347915  4.7099640945
Li  1.3596576735  0.9614231655  2.3549961750
Zn  4.0789567140  2.8842579570  7.0649602695
4
scale = 1.10000
Li  0.0000000000  0.0000000000  0.0000000000
Li  2.8487894710  2.0143983530  4.9342480990
Li  1.4244032770  1.0072052210  2.4671388500
Zn  4.2731927480  3.0216035740  7.4013869490
4
scale = 1.15000
Li  0.0000000000  0.0000000000  0.0000000000
Li  2.9782799015  2.1059619145  5.1585321035
Li  1.4891488805  1.0529872765  2.5792815250
Zn  4.4674287820  3.1589491910  7.7378136285
4
scale = 1.20000
Li  0.0000000000  0.0000000000  0.0000000000
Li  3.1077703320  2.1975254760  5.3828161080
Li  1.5538944840  1.0987693320  2.6914242000
Zn  4.6616648160  3.2962948080  8.0742403080
4
scale = 1.25000
Li  0.0000000000  0.0000000000  0.0000000000
Li  3.2372607625  2.2890890375  5.6071001125
Li  1.6186400875  1.1445513875  2.8035668750
Zn  4.8559008500  3.4336404250  8.4106669875
4
scale = 1.30000
Li  0.0000000000  0.0000000000  0.0000000000
Li  3.3667511930  2.3806525990  5.8313841170
Li  1.6833856910  1.1903334430  2.9157095500
Zn  5.0501368840  3.5709860420  8.7470936670
4
scale = 1.35000
Li  0.0000000000  0.0000000000  0.0000000000
Li  3.4962416235  2.4722161605  6.0556681215
Li  1.7481312945  1.2361154985  3.0278522250
Zn  5.2443729180  3.7083316590  9.0835203465
4
scale = 1.40000
Li  0.0000000000  0.0000000000  0.0000000000
Li  3.6257320540  2.5637797220  6.2799521260
Li  1.8128768980  1.2818975540  3.1399949000
Zn  5.4386089520  3.8456772760  9.4199470260
4
scale = 1.45000
Li  0.0000000000  0.0000000000  0.0000000000
Li  3.7552224845  2.6553432835  6.5042361305
Li  1.8776225015  1.3276796095  3.2521375750
Zn  5.6328449860  3.9830228930  9.7563737055
4
scale = 1.50000
Li  0.0000000000  0.0000000000  0.0000000000
Li  3.8847129150  2.7469068450  6.7285201350
Li  1.9423681050  1.3734616650  3.3642802500
Zn  5.8270810200  4.1203685100  10.0928003850
4
scale = 1.55000
Li  0.0000000000  0.0000000000  0.0000000000
Li  4.0142033455  2.8384704065  6.9528041395
Li  2.0071137085  1.4192437205  3.4764229250
Zn  6.0213170540  4.2577141270  10.4292270645
4
scale = 1.60000
Li  0.0000000000  0.0000000000  0.0000000000
Li  4.1436937760  2.9300339680  7.1770881440
Li  2.0718593120  1.4650257760  3.5885656000
Zn  6.2155530880  4.3950597440  10.7656537440
4
scale = 1.65000
Li  0.0000000000  0.0000000000  0.0000000000
Li  4.2731842065  3.0215975295  7.4013721485
Li  2.1366049155  1.5108078315  3.7007082750
Zn  6.4097891220  4.5324053610  11.1020804235
4
scale = 1.70000
Li  0.0000000000  0.0000000000  0.0000000000
Li  4.4026746370  3.1131610910  7.6256561530
Li  2.2013505190  1.5565898870  3.8128509500
Zn  6.6040251560  4.6697509780  11.4385071030
4
scale = 1.75000
Li  0.0000000000  0.0000000000  0.0000000000
Li  4.5321650675  3.2047246525  7.8499401575
Li  2.2660961225  1.6023719425  3.9249936250
Zn  6.7982611900  4.8070965950  11.7749337825
4
scale = 1.80000
Li  0.0000000000  0.0000000000  0.0000000000
Li  4.6616554980  3.2962882140  8.0742241620
Li  2.3308417260  1.6481539980  4.0371363000
Zn  6.9924972240  4.9444422120  12.1113604620
4
scale = 1.85000
Li  0.0000000000  0.0000000000  0.0000000000
Li  4.7911459285  3.3878517755  8.2985081665
Li  2.3955873295  1.6939360535  4.1492789750
Zn  7.1867332580  5.0817878290  12.4477871415
4
scale = 1.90000
Li  0.0000000000  0.0000000000  0.0000000000
Li  4.9206363590  3.4794153370  8.5227921710
Li  2.4603329330  1.7397181090  4.2614216500
Zn  7.3809692920  5.2191334460  12.7842138210
4
scale = 1.95000
Li  0.0000000000  0.0000000000  0.0000000000
Li  5.0501267895  3.5709788985  8.7470761755
Li  2.5250785365  1.7855001645  4.3735643250
Zn  7.5752053260  5.3564790630  13.1206405005
4
scale = 2.00000
Li  0.0000000000  0.0000000000  0.0000000000
Li  5.1796172200  3.6625424600  8.9713601800
Li  2.5898241400  1.8312822200  4.4857070000
Zn  7.7694413600  5.4938246800  13.4570671800
4
scale = 2.05000
Li  0.0000000000  0.0000000000  0.0000000000
Li  5.3091076505  3.7541060215  9.1956441845
Li  2.6545697435  1.8770642755  4.5978496750
Zn  7.9636773940  5.6311702970  13.7934938595
4
scale = 2.10000
Li  0.0000000000  0.0000000000  0.0000000000
Li  5.4385980810  3.8456695830  9.4199281890
Li  2.7193153470  1.9228463310  4.7099923500
Zn  8.1579134280  5.7685159140  14.1299205390
4
scale = 2.15000
Li  0.0000000000  0.0000000000  0.0000000000
Li  5.5680885115  3.9372331445  9.6442121935
Li  2.7840609505  1.9686283865  4.8221350250
Zn  8.3521494620  5.9058615310  14.4663472185
4
scale = 2.20000
Li  0.0000000000  0.0000000000  0.0000000000
Li  5.6975789420  4.0287967060  9.8684961980
Li  2.8488065540  2.0144104420  4.9342777000
Zn  8.5463854960  6.0432071480  14.8027738980
4
scale = 2.25000
Li  0.0000000000  0.0000000000  0.0000000000
Li  5.8270693725  4.1203602675  10.0927802025
Li  2.9135521575  2.0601924975  5.0464203750
Zn  8.7406215300  6.1805527650  15.1392005775
4
scale = 2.30000
Li  0.0000000000  0.0000000000  0.0000000000
Li  5.9565598030  4.2119238290  10.3170642070
Li  2.9782977610  2.1059745530  5.1585630500
Zn  8.9348575640  6.3178983820  15.4756272570
4
scale = 2.35000
Li  0.0000000000  0.0000000000  0.0000000000
Li  6.0860502335  4.3034873905  10.5413482115
Li  3.0430433645  2.1517566085  5.2707057250
Zn  9.1290935980  6.4552439990  15.8120539365
4
scale = 2.40000
Li  0.0000000000  0.0000000000  0.0000000000
Li  6.2155406640  4.3950509520  10.7656322160
Li  3.1077889680  2.1975386640  5.3828484000
Zn  9.3233296320  6.5925896160  16.1484806160
4
scale = 2.45000
Li  0.0000000000  0.0000000000  0.0000000000
Li  6.3450310945  4.4866145135  10.9899162205
Li  3.1725345715  2.2433207195  5.4949910750
Zn  9.5175656660  6.7299352330  16.4849072955
