5
scale = 0.75000
Li  2.0459220075  1.1925342450  17.0637793950
Li  0.6819392475  0.3974911575  5.6876365650
Li  2.7280094850  1.5901118025  22.7526522525
Li  1.3640267175  0.7950687075  11.3765094225
Mg  0.0000000000  0.0000000000  0.0000000000
5
scale = 0.80000
Li  2.1823168080  1.2720365280  18.2013646880
Li  0.7274018640  0.4239905680  6.0668123360
Li  2.9098767840  1.6961192560  24.2694957360
Li  1.4549618320  0.8480732880  12.1349433840
Mg  0.0000000000  0.0000000000  0.0000000000
5
scale = 0.85000
Li  2.3187116085  1.3515388110  19.3389499810
Li  0.7728644805  0.4504899785  6.4459881070
Li  3.0917440830  1.8021267095  25.7863392195
Li  1.5458969465  0.9010778685  12.8933773455
Mg  0.0000000000  0.0000000000  0.0000000000
5
scale = 0.90000
Li  2.4551064090  1.4310410940  20.4765352740
Li  0.8183270970  0.4769893890  6.8251638780
Li  3.2736113820  1.9081341630  27.3031827030
Li  1.6368320610  0.9540824490  13.6518113070
Mg  0.0000000000  0.0000000000  0.0000000000
5
scale = 0.95000
Li  2.5915012095  1.5105433770  21.6141205670
Li  0.8637897135  0.5034887995  7.2043396490
Li  3.4554786810  2.0141416165  28.8200261865
Li  1.7277671755  1.0070870295  14.4102452685
Mg  0.0000000000  0.0000000000  0.0000000000
5
scale = 1.00000
Li  2.7278960100  1.5900456600  22.7517058600
Li  0.9092523300  0.5299882100  7.5835154200
Li  3.6373459800  2.1201490700  30.3368696700
Li  1.8187022900  1.0600916100  15.1686792300
Mg  0.0000000000  0.0000000000  0.0000000000
5
scale = 1.05000
Li  2.8642908105  1.6695479430  23.8892911530
Li  0.9547149465  0.5564876205  7.9626911910
Li  3.8192132790  2.2261565235  31.8537131535
Li  1.9096374045  1.1130961905  15.9271131915
Mg  0.0000000000  0.0000000000  0.0000000000
5
scale = 1.10000
Li  3.0006856110  1.7490502260  25.0268764460
Li  1.0001775630  0.5829870310  8.3418669620
Li  4.0010805780  2.3321639770  33.3705566370
Li  2.0005725190  1.1661007710  16.6855471530
Mg  0.0000000000  0.0000000000  0.0000000000
5
scale = 1.15000
Li  3.1370804115  1.8285525090  26.1644617390
Li  1.0456401795  0.6094864415  8.7210427330
Li  4.1829478770  2.4381714305  34.8874001205
Li  2.0915076335  1.2191053515  17.4439811145
Mg  0.0000000000  0.0000000000  0.0000000000
5
scale = 1.20000
Li  3.2734752120  1.9080547920  27.3020470320
Li  1.0911027960  0.6359858520  9.1002185040
Li  4.3648151760  2.5441788840  36.4042436040
Li  2.1824427480  1.2721099320  18.2024150760
Mg  0.0000000000  0.0000000000  0.0000000000
5
scale = 1.25000
Li  3.4098700125  1.9875570750  28.4396323250
Li  1.1365654125  0.6624852625  9.4793942750
Li  4.5466824750  2.6501863375  37.9210870875
Li  2.2733778625  1.3251145125  18.9608490375
Mg  0.0000000000  0.0000000000  0.0000000000
5
scale = 1.30000
Li  3.5462648130  2.0670593580  29.5772176180
Li  1.1820280290  0.6889846730  9.8585700460
Li  4.7285497740  2.7561937910  39.4379305710
Li  2.3643129770  1.3781190930  19.7192829990
Mg  0.0000000000  0.0000000000  0.0000000000
5
scale = 1.35000
Li  3.6826596135  2.1465616410  30.7148029110
Li  1.2274906455  0.7154840835  10.2377458170
Li  4.9104170730  2.8622012445  40.9547740545
Li  2.4552480915  1.4311236735  20.4777169605
Mg  0.0000000000  0.0000000000  0.0000000000
5
scale = 1.40000
Li  3.8190544140  2.2260639240  31.8523882040
Li  1.2729532620  0.7419834940  10.6169215880
Li  5.0922843720  2.9682086980  42.4716175380
Li  2.5461832060  1.4841282540  21.2361509220
Mg  0.0000000000  0.0000000000  0.0000000000
5
scale = 1.45000
Li  3.9554492145  2.3055662070  32.9899734970
Li  1.3184158785  0.7684829045  10.9960973590
Li  5.2741516710  3.0742161515  43.9884610215
Li  2.6371183205  1.5371328345  21.9945848835
Mg  0.0000000000  0.0000000000  0.0000000000
5
scale = 1.50000
Li  4.0918440150  2.3850684900  34.1275587900
Li  1.3638784950  0.7949823150  11.3752731300
Li  5.4560189700  3.1802236050  45.5053045050
Li  2.7280534350  1.5901374150  22.7530188450
Mg  0.0000000000  0.0000000000  0.0000000000
5
scale = 1.55000
Li  4.2282388155  2.4645707730  35.2651440830
Li  1.4093411115  0.8214817255  11.7544489010
Li  5.6378862690  3.2862310585  47.0221479885
Li  2.8189885495  1.6431419955  23.5114528065
Mg  0.0000000000  0.0000000000  0.0000000000
5
scale = 1.60000
Li  4.3646336160  2.5440730560  36.4027293760
Li  1.4548037280  0.8479811360  12.1336246720
Li  5.8197535680  3.3922385120  48.5389914720
Li  2.9099236640  1.6961465760  24.2698867680
Mg  0.0000000000  0.0000000000  0.0000000000
5
scale = 1.65000
Li  4.5010284165  2.6235753390  37.5403146690
Li  1.5002663445  0.8744805465  12.5128004430
Li  6.0016208670  3.4982459655  50.0558349555
Li  3.0008587785  1.7491511565  25.0283207295
Mg  0.0000000000  0.0000000000  0.0000000000
5
scale = 1.70000
Li  4.6374232170  2.7030776220  38.6778999620
Li  1.5457289610  0.9009799570  12.8919762140
Li  6.1834881660  3.6042534190  51.5726784390
Li  3.0917938930  1.8021557370  25.7867546910
Mg  0.0000000000  0.0000000000  0.0000000000
5
scale = 1.75000
Li  4.7738180175  2.7825799050  39.8154852550
Li  1.5911915775  0.9274793675  13.2711519850
Li  6.3653554650  3.7102608725  53.0895219225
Li  3.1827290075  1.8551603175  26.5451886525
Mg  0.0000000000  0.0000000000  0.0000000000
5
scale = 1.80000
Li  4.9102128180  2.8620821880  40.9530705480
Li  1.6366541940  0.9539787780  13.6503277560
Li  6.5472227640  3.8162683260  54.6063654060
Li  3.2736641220  1.9081648980  27.3036226140
Mg  0.0000000000  0.0000000000  0.0000000000
5
scale = 1.85000
Li  5.0466076185  2.9415844710  42.0906558410
Li  1.6821168105  0.9804781885  14.0295035270
Li  6.7290900630  3.9222757795  56.1232088895
Li  3.3645992365  1.9611694785  28.0620565755
Mg  0.0000000000  0.0000000000  0.0000000000
5
scale = 1.90000
Li  5.1830024190  3.0210867540  43.2282411340
Li  1.7275794270  1.0069775990  14.4086792980
Li  6.9109573620  4.0282832330  57.6400523730
Li  3.4555343510  2.0141740590  28.8204905370
Mg  0.0000000000  0.0000000000  0.0000000000
5
scale = 1.95000
Li  5.3193972195  3.1005890370  44.3658264270
Li  1.7730420435  1.0334770095  14.7878550690
Li  7.0928246610  4.1342906865  59.1568958565
Li  3.5464694655  2.0671786395  29.5789244985
Mg  0.0000000000  0.0000000000  0.0000000000
5
scale = 2.00000
Li  5.4557920200  3.1800913200  45.5034117200
Li  1.8185046600  1.0599764200  15.1670308400
Li  7.2746919600  4.2402981400  60.6737393400
Li  3.6374045800  2.1201832200  30.3373584600
Mg  0.0000000000  0.0000000000  0.0000000000
5
scale = 2.05000
Li  5.5921868205  3.2595936030  46.6409970130
Li  1.8639672765  1.0864758305  15.5462066110
Li  7.4565592590  4.3463055935  62.1905828235
Li  3.7283396945  2.1731878005  31.0957924215
Mg  0.0000000000  0.0000000000  0.0000000000
5
scale = 2.10000
Li  5.7285816210  3.3390958860  47.7785823060
Li  1.9094298930  1.1129752410  15.9253823820
Li  7.6384265580  4.4523130470  63.7074263070
Li  3.8192748090  2.2261923810  31.8542263830
Mg  0.0000000000  0.0000000000  0.0000000000
5
scale = 2.15000
Li  5.8649764215  3.4185981690  48.9161675990
Li  1.9548925095  1.1394746515  16.3045581530
Li  7.8202938570  4.5583205005  65.2242697905
Li  3.9102099235  2.2791969615  32.6126603445
Mg  0.0000000000  0.0000000000  0.0000000000
5
scale = 2.20000
Li  6.0013712220  3.4981004520  50.0537528920
Li  2.0003551260  1.1659740620  16.6837339240
Li  8.0021611560  4.6643279540  66.7411132740
Li  4.0011450380  2.3322015420  33.3710943060
Mg  0.0000000000  0.0000000000  0.0000000000
5
scale = 2.25000
Li  6.1377660225  3.5776027350  51.1913381850
Li  2.0458177425  1.1924734725  17.0629096950
Li  8.1840284550  4.7703354075  68.2579567575
Li  4.0920801525  2.3852061225  34.1295282675
Mg  0.0000000000  0.0000000000  0.0000000000
5
scale = 2.30000
Li  6.2741608230  3.6571050180  52.3289234780
Li  2.0912803590  1.2189728830  17.4420854660
Li  8.3658957540  4.8763428610  69.7748002410
Li  4.1830152670  2.4382107030  34.8879622290
Mg  0.0000000000  0.0000000000  0.0000000000
5
scale = 2.35000
Li  6.4105556235  3.7366073010  53.4665087710
Li  2.1367429755  1.2454722935  17.8212612370
Li  8.5477630530  4.9823503145  71.2916437245
Li  4.2739503815  2.4912152835  35.6463961905
Mg  0.0000000000  0.0000000000  0.0000000000
5
scale = 2.40000
Li  6.5469504240  3.8161095840  54.6040940640
Li  2.1822055920  1.2719717040  18.2004370080
Li  8.7296303520  5.0883577680  72.8084872080
Li  4.3648854960  2.5442198640  36.4048301520
Mg  0.0000000000  0.0000000000  0.0000000000
5
scale = 2.45000
Li  6.6833452245  3.8956118670  55.7416793570
Li  2.2276682085  1.2984711145  18.5796127790
Li  8.9114976510  5.1943652215  74.3253306915
Li  4.4558206105  2.5972244445  37.1632641135
Mg  0.0000000000  0.0000000000  0.0000000000
