10
scale = 0.75000
Li  3.5626993125  2.5192088400  6.1707762225
Li  1.6629803850  2.5192088400  5.0739729900
Li  2.9294596725  0.7281366600  5.0739729900
Li  2.7312113175  0.5879539050  2.5369902975
Li  0.8314923900  0.5879539050  1.4401870650
Li  3.5626993125  2.5192088400  3.9771697500
Li  1.4647320300  2.3790260925  2.5369902975
Li  0.8314923900  0.5879539050  3.6337935375
Pt  0.0000000000  0.0000000000  0.0000000000
Pt  4.3941917025  3.1071627525  7.6109632875
10
scale = 0.80000
Li  3.8002126000  2.6871560960  6.5821613040
Li  1.7738457440  2.6871560960  5.4122378560
Li  3.1247569840  0.7766791040  5.4122378560
Li  2.9132920720  0.6271508320  2.7061229840
Li  0.8869252160  0.6271508320  1.5361995360
Li  3.8002126000  2.6871560960  4.2423144000
Li  1.5623808320  2.5376278320  2.7061229840
Li  0.8869252160  0.6271508320  3.8760464400
Pt  0.0000000000  0.0000000000  0.0000000000
Pt  4.6871378160  3.3143069360  8.1183608400
10
scale = 0.85000
Li  4.0377258875  2.8551033520  6.9935463855
Li  1.8847111030  2.8551033520  5.7505027220
Li  3.3200542955  0.8252215480  5.7505027220
Li  3.0953728265  0.6663477590  2.8752556705
Li  0.9423580420  0.6663477590  1.6322120070
Li  4.0377258875  2.8551033520  4.5074590500
Li  1.6600296340  2.6962295715  2.8752556705
Li  0.9423580420  0.6663477590  4.1182993425
Pt  0.0000000000  0.0000000000  0.0000000000
Pt  4.9800839295  3.5214511195  8.6257583925
10
scale = 0.90000
Li  4.2752391750  3.0230506080  7.4049314670
Li  1.9955764620  3.0230506080  6.0887675880
Li  3.5153516070  0.8737639920  6.0887675880
Li  3.2774535810  0.7055446860  3.0443883570
Li  0.9977908680  0.7055446860  1.7282244780
Li  4.2752391750  3.0230506080  4.7726037000
Li  1.7576784360  2.8548313110  3.0443883570
Li  0.9977908680  0.7055446860  4.3605522450
Pt  0.0000000000  0.0000000000  0.0000000000
Pt  5.2730300430  3.7285953030  9.1331559450
10
scale = 0.95000
Li  4.5127524625  3.1909978640  7.8163165485
Li  2.1064418210  3.1909978640  6.4270324540
Li  3.7106489185  0.9223064360  6.4270324540
Li  3.4595343355  0.7447416130  3.2135210435
Li  1.0532236940  0.7447416130  1.8242369490
Li  4.5127524625  3.1909978640  5.0377483500
Li  1.8553272380  3.0134330505  3.2135210435
Li  1.0532236940  0.7447416130  4.6028051475
Pt  0.0000000000  0.0000000000  0.0000000000
Pt  5.5659761565  3.9357394865  9.6405534975
10
scale = 1.00000
Li  4.7502657500  3.3589451200  8.2277016300
Li  2.2173071800  3.3589451200  6.7652973200
Li  3.9059462300  0.9708488800  6.7652973200
Li  3.6416150900  0.7839385400  3.3826537300
Li  1.1086565200  0.7839385400  1.9202494200
Li  4.7502657500  3.3589451200  5.3028930000
Li  1.9529760400  3.1720347900  3.3826537300
Li  1.1086565200  0.7839385400  4.8450580500
Pt  0.0000000000  0.0000000000  0.0000000000
Pt  5.8589222700  4.1428836700  10.1479510500
10
scale = 1.05000
Li  4.9877790375  3.5268923760  8.6390867115
Li  2.3281725390  3.5268923760  7.1035621860
Li  4.1012435415  1.0193913240  7.1035621860
Li  3.8236958445  0.8231354670  3.5517864165
Li  1.1640893460  0.8231354670  2.0162618910
Li  4.9877790375  3.5268923760  5.5680376500
Li  2.0506248420  3.3306365295  3.5517864165
Li  1.1640893460  0.8231354670  5.0873109525
Pt  0.0000000000  0.0000000000  0.0000000000
Pt  6.1518683835  4.3500278535  10.6553486025
10
scale = 1.10000
Li  5.2252923250  3.6948396320  9.0504717930
Li  2.4390378980  3.6948396320  7.4418270520
Li  4.2965408530  1.0679337680  7.4418270520
Li  4.0057765990  0.8623323940  3.7209191030
Li  1.2195221720  0.8623323940  2.1122743620
Li  5.2252923250  3.6948396320  5.8331823000
Li  2.1482736440  3.4892382690  3.7209191030
Li  1.2195221720  0.8623323940  5.3295638550
Pt  0.0000000000  0.0000000000  0.0000000000
Pt  6.4448144970  4.5571720370  11.1627461550
10
scale = 1.15000
Li  5.4628056125  3.8627868880  9.4618568745
Li  2.5499032570  3.8627868880  7.7800919180
Li  4.4918381645  1.1164762120  7.7800919180
Li  4.1878573535  0.9015293210  3.8900517895
Li  1.2749549980  0.9015293210  2.2082868330
Li  5.4628056125  3.8627868880  6.0983269500
Li  2.2459224460  3.6478400085  3.8900517895
Li  1.2749549980  0.9015293210  5.5718167575
Pt  0.0000000000  0.0000000000  0.0000000000
Pt  6.7377606105  4.7643162205  11.6701437075
10
scale = 1.20000
Li  5.7003189000  4.0307341440  9.8732419560
Li  2.6607686160  4.0307341440  8.1183567840
Li  4.6871354760  1.1650186560  8.1183567840
Li  4.3699381080  0.9407262480  4.0591844760
Li  1.3303878240  0.9407262480  2.3042993040
Li  5.7003189000  4.0307341440  6.3634716000
Li  2.3435712480  3.8064417480  4.0591844760
Li  1.3303878240  0.9407262480  5.8140696600
Pt  0.0000000000  0.0000000000  0.0000000000
Pt  7.0307067240  4.9714604040  12.1775412600
10
scale = 1.25000
Li  5.9378321875  4.1986814000  10.2846270375
Li  2.7716339750  4.1986814000  8.4566216500
Li  4.8824327875  1.2135611000  8.4566216500
Li  4.5520188625  0.9799231750  4.2283171625
Li  1.3858206500  0.9799231750  2.4003117750
Li  5.9378321875  4.1986814000  6.6286162500
Li  2.4412200500  3.9650434875  4.2283171625
Li  1.3858206500  0.9799231750  6.0563225625
Pt  0.0000000000  0.0000000000  0.0000000000
Pt  7.3236528375  5.1786045875  12.6849388125
10
scale = 1.30000
Li  6.1753454750  4.3666286560  10.6960121190
Li  2.8824993340  4.3666286560  8.7948865160
Li  5.0777300990  1.2621035440  8.7948865160
Li  4.7340996170  1.0191201020  4.3974498490
Li  1.4412534760  1.0191201020  2.4963242460
Li  6.1753454750  4.3666286560  6.8937609000
Li  2.5388688520  4.1236452270  4.3974498490
Li  1.4412534760  1.0191201020  6.2985754650
Pt  0.0000000000  0.0000000000  0.0000000000
Pt  7.6165989510  5.3857487710  13.1923363650
10
scale = 1.35000
Li  6.4128587625  4.5345759120  11.1073972005
Li  2.9933646930  4.5345759120  9.1331513820
Li  5.2730274105  1.3106459880  9.1331513820
Li  4.9161803715  1.0583170290  4.5665825355
Li  1.4966863020  1.0583170290  2.5923367170
Li  6.4128587625  4.5345759120  7.1589055500
Li  2.6365176540  4.2822469665  4.5665825355
Li  1.4966863020  1.0583170290  6.5408283675
Pt  0.0000000000  0.0000000000  0.0000000000
Pt  7.9095450645  5.5928929545  13.6997339175
10
scale = 1.40000
Li  6.6503720500  4.7025231680  11.5187822820
Li  3.1042300520  4.7025231680  9.4714162480
Li  5.4683247220  1.3591884320  9.4714162480
Li  5.0982611260  1.0975139560  4.7357152220
Li  1.5521191280  1.0975139560  2.6883491880
Li  6.6503720500  4.7025231680  7.4240502000
Li  2.7341664560  4.4408487060  4.7357152220
Li  1.5521191280  1.0975139560  6.7830812700
Pt  0.0000000000  0.0000000000  0.0000000000
Pt  8.2024911780  5.8000371380  14.2071314700
10
scale = 1.45000
Li  6.8878853375  4.8704704240  11.9301673635
Li  3.2150954110  4.8704704240  9.8096811140
Li  5.6636220335  1.4077308760  9.8096811140
Li  5.2803418805  1.1367108830  4.9048479085
Li  1.6075519540  1.1367108830  2.7843616590
Li  6.8878853375  4.8704704240  7.6891948500
Li  2.8318152580  4.5994504455  4.9048479085
Li  1.6075519540  1.1367108830  7.0253341725
Pt  0.0000000000  0.0000000000  0.0000000000
Pt  8.4954372915  6.0071813215  14.7145290225
10
scale = 1.50000
Li  7.1253986250  5.0384176800  12.3415524450
Li  3.3259607700  5.0384176800  10.1479459800
Li  5.8589193450  1.4562733200  10.1479459800
Li  5.4624226350  1.1759078100  5.0739805950
Li  1.6629847800  1.1759078100  2.8803741300
Li  7.1253986250  5.0384176800  7.9543395000
Li  2.9294640600  4.7580521850  5.0739805950
Li  1.6629847800  1.1759078100  7.2675870750
Pt  0.0000000000  0.0000000000  0.0000000000
Pt  8.7883834050  6.2143255050  15.2219265750
10
scale = 1.55000
Li  7.3629119125  5.2063649360  12.7529375265
Li  3.4368261290  5.2063649360  10.4862108460
Li  6.0542166565  1.5048157640  10.4862108460
Li  5.6445033895  1.2151047370  5.2431132815
Li  1.7184176060  1.2151047370  2.9763866010
Li  7.3629119125  5.2063649360  8.2194841500
Li  3.0271128620  4.9166539245  5.2431132815
Li  1.7184176060  1.2151047370  7.5098399775
Pt  0.0000000000  0.0000000000  0.0000000000
Pt  9.0813295185  6.4214696885  15.7293241275
10
scale = 1.60000
Li  7.6004252000  5.3743121920  13.1643226080
Li  3.5476914880  5.3743121920  10.8244757120
Li  6.2495139680  1.5533582080  10.8244757120
Li  5.8265841440  1.2543016640  5.4122459680
Li  1.7738504320  1.2543016640  3.0723990720
Li  7.6004252000  5.3743121920  8.4846288000
Li  3.1247616640  5.0752556640  5.4122459680
Li  1.7738504320  1.2543016640  7.7520928800
Pt  0.0000000000  0.0000000000  0.0000000000
Pt  9.3742756320  6.6286138720  16.2367216800
10
scale = 1.65000
Li  7.8379384875  5.5422594480  13.5757076895
Li  3.6585568470  5.5422594480  11.1627405780
Li  6.4448112795  1.6019006520  11.1627405780
Li  6.0086648985  1.2934985910  5.5813786545
Li  1.8292832580  1.2934985910  3.1684115430
Li  7.8379384875  5.5422594480  8.7497734500
Li  3.2224104660  5.2338574035  5.5813786545
Li  1.8292832580  1.2934985910  7.9943457825
Pt  0.0000000000  0.0000000000  0.0000000000
Pt  9.6672217455  6.8357580555  16.7441192325
10
scale = 1.70000
Li  8.0754517750  5.7102067040  13.9870927710
Li  3.7694222060  5.7102067040  11.5010054440
Li  6.6401085910  1.6504430960  11.5010054440
Li  6.1907456530  1.3326955180  5.7505113410
Li  1.8847160840  1.3326955180  3.2644240140
Li  8.0754517750  5.7102067040  9.0149181000
Li  3.3200592680  5.3924591430  5.7505113410
Li  1.8847160840  1.3326955180  8.2365986850
Pt  0.0000000000  0.0000000000  0.0000000000
Pt  9.9601678590  7.0429022390  17.2515167850
10
scale = 1.75000
Li  8.3129650625  5.8781539600  14.3984778525
Li  3.8802875650  5.8781539600  11.8392703100
Li  6.8354059025  1.6989855400  11.8392703100
Li  6.3728264075  1.3718924450  5.9196440275
Li  1.9401489100  1.3718924450  3.3604364850
Li  8.3129650625  5.8781539600  9.2800627500
Li  3.4177080700  5.5510608825  5.9196440275
Li  1.9401489100  1.3718924450  8.4788515875
Pt  0.0000000000  0.0000000000  0.0000000000
Pt  10.2531139725  7.2500464225  17.7589143375
10
scale = 1.80000
Li  8.5504783500  6.0461012160  14.8098629340
Li  3.9911529240  6.0461012160  12.1775351760
Li  7.0307032140  1.7475279840  12.1775351760
Li  6.5549071620  1.4110893720  6.0887767140
Li  1.9955817360  1.4110893720  3.4564489560
Li  8.5504783500  6.0461012160  9.5452074000
Li  3.5153568720  5.7096626220  6.0887767140
Li  1.9955817360  1.4110893720  8.7211044900
Pt  0.0000000000  0.0000000000  0.0000000000
Pt  10.5460600860  7.4571906060  18.2663118900
10
scale = 1.85000
Li  8.7879916375  6.2140484720  15.2212480155
Li  4.1020182830  6.2140484720  12.5158000420
Li  7.2260005255  1.7960704280  12.5158000420
Li  6.7369879165  1.4502862990  6.2579094005
Li  2.0510145620  1.4502862990  3.5524614270
Li  8.7879916375  6.2140484720  9.8103520500
Li  3.6130056740  5.8682643615  6.2579094005
Li  2.0510145620  1.4502862990  8.9633573925
Pt  0.0000000000  0.0000000000  0.0000000000
Pt  10.8390061995  7.6643347895  18.7737094425
10
scale = 1.90000
Li  9.0255049250  6.3819957280  15.6326330970
Li  4.2128836420  6.3819957280  12.8540649080
Li  7.4212978370  1.8446128720  12.8540649080
Li  6.9190686710  1.4894832260  6.4270420870
Li  2.1064473880  1.4894832260  3.6484738980
Li  9.0255049250  6.3819957280  10.0754967000
Li  3.7106544760  6.0268661010  6.4270420870
Li  2.1064473880  1.4894832260  9.2056102950
Pt  0.0000000000  0.0000000000  0.0000000000
Pt  11.1319523130  7.8714789730  19.2811069950
10
scale = 1.95000
Li  9.2630182125  6.5499429840  16.0440181785
Li  4.3237490010  6.5499429840  13.1923297740
Li  7.6165951485  1.8931553160  13.1923297740
Li  7.1011494255  1.5286801530  6.5961747735
Li  2.1618802140  1.5286801530  3.7444863690
Li  9.2630182125  6.5499429840  10.3406413500
Li  3.8083032780  6.1854678405  6.5961747735
Li  2.1618802140  1.5286801530  9.4478631975
Pt  0.0000000000  0.0000000000  0.0000000000
Pt  11.4248984265  8.0786231565  19.7885045475
10
scale = 2.00000
Li  9.5005315000  6.7178902400  16.4554032600
Li  4.4346143600  6.7178902400  13.5305946400
Li  7.8118924600  1.9416977600  13.5305946400
Li  7.2832301800  1.5678770800  6.7653074600
Li  2.2173130400  1.5678770800  3.8404988400
Li  9.5005315000  6.7178902400  10.6057860000
Li  3.9059520800  6.3440695800  6.7653074600
Li  2.2173130400  1.5678770800  9.6901161000
Pt  0.0000000000  0.0000000000  0.0000000000
Pt  11.7178445400  8.2857673400  20.2959021000
10
scale = 2.05000
Li  9.7380447875  6.8858374960  16.8667883415
Li  4.5454797190  6.8858374960  13.8688595060
Li  8.0071897715  1.9902402040  13.8688595060
Li  7.4653109345  1.6070740070  6.9344401465
Li  2.2727458660  1.6070740070  3.9365113110
Li  9.7380447875  6.8858374960  10.8709306500
Li  4.0036008820  6.5026713195  6.9344401465
Li  2.2727458660  1.6070740070  9.9323690025
Pt  0.0000000000  0.0000000000  0.0000000000
Pt  12.0107906535  8.4929115235  20.8032996525
10
scale = 2.10000
Li  9.9755580750  7.0537847520  17.2781734230
Li  4.6563450780  7.0537847520  14.2071243720
Li  8.2024870830  2.0387826480  14.2071243720
Li  7.6473916890  1.6462709340  7.1035728330
Li  2.3281786920  1.6462709340  4.0325237820
Li  9.9755580750  7.0537847520  11.1360753000
Li  4.1012496840  6.6612730590  7.1035728330
Li  2.3281786920  1.6462709340  10.1746219050
Pt  0.0000000000  0.0000000000  0.0000000000
Pt  12.3037367670  8.7000557070  21.3106972050
10
scale = 2.15000
Li  10.2130713625  7.2217320080  17.6895585045
Li  4.7672104370  7.2217320080  14.5453892380
Li  8.3977843945  2.0873250920  14.5453892380
Li  7.8294724435  1.6854678610  7.2727055195
Li  2.3836115180  1.6854678610  4.1285362530
Li  10.2130713625  7.2217320080  11.4012199500
Li  4.1988984860  6.8198747985  7.2727055195
Li  2.3836115180  1.6854678610  10.4168748075
Pt  0.0000000000  0.0000000000  0.0000000000
Pt  12.5966828805  8.9071998905  21.8180947575
10
scale = 2.20000
Li  10.4505846500  7.3896792640  18.1009435860
Li  4.8780757960  7.3896792640  14.8836541040
Li  8.5930817060  2.1358675360  14.8836541040
Li  8.0115531980  1.7246647880  7.4418382060
Li  2.4390443440  1.7246647880  4.2245487240
Li  10.4505846500  7.3896792640  11.6663646000
Li  4.2965472880  6.9784765380  7.4418382060
Li  2.4390443440  1.7246647880  10.6591277100
Pt  0.0000000000  0.0000000000  0.0000000000
Pt  12.8896289940  9.1143440740  22.3254923100
10
scale = 2.25000
Li  10.6880979375  7.5576265200  18.5123286675
Li  4.9889411550  7.5576265200  15.2219189700
Li  8.7883790175  2.1844099800  15.2219189700
Li  8.1936339525  1.7638617150  7.6109708925
Li  2.4944771700  1.7638617150  4.3205611950
Li  10.6880979375  7.5576265200  11.9315092500
Li  4.3941960900  7.1370782775  7.6109708925
Li  2.4944771700  1.7638617150  10.9013806125
Pt  0.0000000000  0.0000000000  0.0000000000
Pt  13.1825751075  9.3214882575  22.8328898625
10
scale = 2.30000
Li  10.9256112250  7.7255737760  18.9237137490
Li  5.0998065140  7.7255737760  15.5601838360
Li  8.9836763290  2.2329524240  15.5601838360
Li  8.3757147070  1.8030586420  7.7801035790
Li  2.5499099960  1.8030586420  4.4165736660
Li  10.9256112250  7.7255737760  12.1966539000
Li  4.4918448920  7.2956800170  7.7801035790
Li  2.5499099960  1.8030586420  11.1436335150
Pt  0.0000000000  0.0000000000  0.0000000000
Pt  13.4755212210  9.5286324410  23.3402874150
10
scale = 2.35000
Li  11.1631245125  7.8935210320  19.3350988305
Li  5.2106718730  7.8935210320  15.8984487020
Li  9.1789736405  2.2814948680  15.8984487020
Li  8.5577954615  1.8422555690  7.9492362655
Li  2.6053428220  1.8422555690  4.5125861370
Li  11.1631245125  7.8935210320  12.4617985500
Li  4.5894936940  7.4542817565  7.9492362655
Li  2.6053428220  1.8422555690  11.3858864175
Pt  0.0000000000  0.0000000000  0.0000000000
Pt  13.7684673345  9.7357766245  23.8476849675
10
scale = 2.40000
Li  11.4006378000  8.0614682880  19.7464839120
Li  5.3215372320  8.0614682880  16.2367135680
Li  9.3742709520  2.3300373120  16.2367135680
Li  8.7398762160  1.8814524960  8.1183689520
Li  2.6607756480  1.8814524960  4.6085986080
Li  11.4006378000  8.0614682880  12.7269432000
Li  4.6871424960  7.6128834960  8.1183689520
Li  2.6607756480  1.8814524960  11.6281393200
Pt  0.0000000000  0.0000000000  0.0000000000
Pt  14.0614134480  9.9429208080  24.3550825200
10
scale = 2.45000
Li  11.6381510875  8.2294155440  20.1578689935
Li  5.4324025910  8.2294155440  16.5749784340
Li  9.5695682635  2.3785797560  16.5749784340
Li  8.9219569705  1.9206494230  8.2875016385
Li  2.7162084740  1.9206494230  4.7046110790
Li  11.6381510875  8.2294155440  12.9920878500
Li  4.7847912980  7.7714852355  8.2875016385
Li  2.7162084740  1.9206494230  11.8703922225
Pt  0.0000000000  0.0000000000  0.0000000000
Pt  14.3543595615  10.1500649915  24.8624800725
