9
scale = 0.75000
Li  1.6177682025  0.9340189125  5.4338538825
Li  -0.0000010050  1.8680378175  0.7307133375
Li  1.6177682025  0.9340189125  3.4098365325
Li  -0.0000010050  1.8680378175  2.7547306875
Li  0.0000000000  0.0000000000  0.0000000000
Ga  1.6177682025  0.9340189125  1.3680233100
Ga  -0.0000010050  1.8680378175  4.7965439100
Ga  0.0000000000  0.0000000000  4.1097114825
Ga  0.0000000000  0.0000000000  2.0552563575
9
scale = 0.80000
Li  1.7256194160  0.9962868400  5.7961108080
Li  -0.0000010720  1.9925736720  0.7794275600
Li  1.7256194160  0.9962868400  3.6371589680
Li  -0.0000010720  1.9925736720  2.9383794000
Li  0.0000000000  0.0000000000  0.0000000000
Ga  1.7256194160  0.9962868400  1.4592248640
Ga  -0.0000010720  1.9925736720  5.1163135040
Ga  0.0000000000  0.0000000000  4.3836922480
Ga  0.0000000000  0.0000000000  2.1922734480
9
scale = 0.85000
Li  1.8334706295  1.0585547675  6.1583677335
Li  -0.0000011390  2.1171095265  0.8281417825
Li  1.8334706295  1.0585547675  3.8644814035
Li  -0.0000011390  2.1171095265  3.1220281125
Li  0.0000000000  0.0000000000  0.0000000000
Ga  1.8334706295  1.0585547675  1.5504264180
Ga  -0.0000011390  2.1171095265  5.4360830980
Ga  0.0000000000  0.0000000000  4.6576730135
Ga  0.0000000000  0.0000000000  2.3292905385
9
scale = 0.90000
Li  1.9413218430  1.1208226950  6.5206246590
Li  -0.0000012060  2.2416453810  0.8768560050
Li  1.9413218430  1.1208226950  4.0918038390
Li  -0.0000012060  2.2416453810  3.3056768250
Li  0.0000000000  0.0000000000  0.0000000000
Ga  1.9413218430  1.1208226950  1.6416279720
Ga  -0.0000012060  2.2416453810  5.7558526920
Ga  0.0000000000  0.0000000000  4.9316537790
Ga  0.0000000000  0.0000000000  2.4663076290
9
scale = 0.95000
Li  2.0491730565  1.1830906225  6.8828815845
Li  -0.0000012730  2.3661812355  0.9255702275
Li  2.0491730565  1.1830906225  4.3191262745
Li  -0.0000012730  2.3661812355  3.4893255375
Li  0.0000000000  0.0000000000  0.0000000000
Ga  2.0491730565  1.1830906225  1.7328295260
Ga  -0.0000012730  2.3661812355  6.0756222860
Ga  0.0000000000  0.0000000000  5.2056345445
Ga  0.0000000000  0.0000000000  2.6033247195
9
scale = 1.00000
Li  2.1570242700  1.2453585500  7.2451385100
Li  -0.0000013400  2.4907170900  0.9742844500
Li  2.1570242700  1.2453585500  4.5464487100
Li  -0.0000013400  2.4907170900  3.6729742500
Li  0.0000000000  0.0000000000  0.0000000000
Ga  2.1570242700  1.2453585500  1.8240310800
Ga  -0.0000013400  2.4907170900  6.3953918800
Ga  0.0000000000  0.0000000000  5.4796153100
Ga  0.0000000000  0.0000000000  2.7403418100
9
scale = 1.05000
Li  2.2648754835  1.3076264775  7.6073954355
Li  -0.0000014070  2.6152529445  1.0229986725
Li  2.2648754835  1.3076264775  4.7737711455
Li  -0.0000014070  2.6152529445  3.8566229625
Li  0.0000000000  0.0000000000  0.0000000000
Ga  2.2648754835  1.3076264775  1.9152326340
Ga  -0.0000014070  2.6152529445  6.7151614740
Ga  0.0000000000  0.0000000000  5.7535960755
Ga  0.0000000000  0.0000000000  2.8773589005
9
scale = 1.10000
Li  2.3727266970  1.3698944050  7.9696523610
Li  -0.0000014740  2.7397887990  1.0717128950
Li  2.3727266970  1.3698944050  5.0010935810
Li  -0.0000014740  2.7397887990  4.0402716750
Li  0.0000000000  0.0000000000  0.0000000000
Ga  2.3727266970  1.3698944050  2.0064341880
Ga  -0.0000014740  2.7397887990  7.0349310680
Ga  0.0000000000  0.0000000000  6.0275768410
Ga  0.0000000000  0.0000000000  3.0143759910
9
scale = 1.15000
Li  2.4805779105  1.4321623325  8.3319092865
Li  -0.0000015410  2.8643246535  1.1204271175
Li  2.4805779105  1.4321623325  5.2284160165
Li  -0.0000015410  2.8643246535  4.2239203875
Li  0.0000000000  0.0000000000  0.0000000000
Ga  2.4805779105  1.4321623325  2.0976357420
Ga  -0.0000015410  2.8643246535  7.3547006620
Ga  0.0000000000  0.0000000000  6.3015576065
Ga  0.0000000000  0.0000000000  3.1513930815
9
scale = 1.20000
Li  2.5884291240  1.4944302600  8.6941662120
Li  -0.0000016080  2.9888605080  1.1691413400
Li  2.5884291240  1.4944302600  5.4557384520
Li  -0.0000016080  2.9888605080  4.4075691000
Li  0.0000000000  0.0000000000  0.0000000000
Ga  2.5884291240  1.4944302600  2.1888372960
Ga  -0.0000016080  2.9888605080  7.6744702560
Ga  0.0000000000  0.0000000000  6.5755383720
Ga  0.0000000000  0.0000000000  3.2884101720
9
scale = 1.25000
Li  2.6962803375  1.5566981875  9.0564231375
Li  -0.0000016750  3.1133963625  1.2178555625
Li  2.6962803375  1.5566981875  5.6830608875
Li  -0.0000016750  3.1133963625  4.5912178125
Li  0.0000000000  0.0000000000  0.0000000000
Ga  2.6962803375  1.5566981875  2.2800388500
Ga  -0.0000016750  3.1133963625  7.9942398500
Ga  0.0000000000  0.0000000000  6.8495191375
Ga  0.0000000000  0.0000000000  3.4254272625
9
scale = 1.30000
Li  2.8041315510  1.6189661150  9.4186800630
Li  -0.0000017420  3.2379322170  1.2665697850
Li  2.8041315510  1.6189661150  5.9103833230
Li  -0.0000017420  3.2379322170  4.7748665250
Li  0.0000000000  0.0000000000  0.0000000000
Ga  2.8041315510  1.6189661150  2.3712404040
Ga  -0.0000017420  3.2379322170  8.3140094440
Ga  0.0000000000  0.0000000000  7.1234999030
Ga  0.0000000000  0.0000000000  3.5624443530
9
scale = 1.35000
Li  2.9119827645  1.6812340425  9.7809369885
Li  -0.0000018090  3.3624680715  1.3152840075
Li  2.9119827645  1.6812340425  6.1377057585
Li  -0.0000018090  3.3624680715  4.9585152375
Li  0.0000000000  0.0000000000  0.0000000000
Ga  2.9119827645  1.6812340425  2.4624419580
Ga  -0.0000018090  3.3624680715  8.6337790380
Ga  0.0000000000  0.0000000000  7.3974806685
Ga  0.0000000000  0.0000000000  3.6994614435
9
scale = 1.40000
Li  3.0198339780  1.7435019700  10.1431939140
Li  -0.0000018760  3.4870039260  1.3639982300
Li  3.0198339780  1.7435019700  6.3650281940
Li  -0.0000018760  3.4870039260  5.1421639500
Li  0.0000000000  0.0000000000  0.0000000000
Ga  3.0198339780  1.7435019700  2.5536435120
Ga  -0.0000018760  3.4870039260  8.9535486320
Ga  0.0000000000  0.0000000000  7.6714614340
Ga  0.0000000000  0.0000000000  3.8364785340
9
scale = 1.45000
Li  3.1276851915  1.8057698975  10.5054508395
Li  -0.0000019430  3.6115397805  1.4127124525
Li  3.1276851915  1.8057698975  6.5923506295
Li  -0.0000019430  3.6115397805  5.3258126625
Li  0.0000000000  0.0000000000  0.0000000000
Ga  3.1276851915  1.8057698975  2.6448450660
Ga  -0.0000019430  3.6115397805  9.2733182260
Ga  0.0000000000  0.0000000000  7.9454421995
Ga  0.0000000000  0.0000000000  3.9734956245
9
scale = 1.50000
Li  3.2355364050  1.8680378250  10.8677077650
Li  -0.0000020100  3.7360756350  1.4614266750
Li  3.2355364050  1.8680378250  6.8196730650
Li  -0.0000020100  3.7360756350  5.5094613750
Li  0.0000000000  0.0000000000  0.0000000000
Ga  3.2355364050  1.8680378250  2.7360466200
Ga  -0.0000020100  3.7360756350  9.5930878200
Ga  0.0000000000  0.0000000000  8.2194229650
Ga  0.0000000000  0.0000000000  4.1105127150
9
scale = 1.55000
Li  3.3433876185  1.9303057525  11.2299646905
Li  -0.0000020770  3.8606114895  1.5101408975
Li  3.3433876185  1.9303057525  7.0469955005
Li  -0.0000020770  3.8606114895  5.6931100875
Li  0.0000000000  0.0000000000  0.0000000000
Ga  3.3433876185  1.9303057525  2.8272481740
Ga  -0.0000020770  3.8606114895  9.9128574140
Ga  0.0000000000  0.0000000000  8.4934037305
Ga  0.0000000000  0.0000000000  4.2475298055
9
scale = 1.60000
Li  3.4512388320  1.9925736800  11.5922216160
Li  -0.0000021440  3.9851473440  1.5588551200
Li  3.4512388320  1.9925736800  7.2743179360
Li  -0.0000021440  3.9851473440  5.8767588000
Li  0.0000000000  0.0000000000  0.0000000000
Ga  3.4512388320  1.9925736800  2.9184497280
Ga  -0.0000021440  3.9851473440  10.2326270080
Ga  0.0000000000  0.0000000000  8.7673844960
Ga  0.0000000000  0.0000000000  4.3845468960
9
scale = 1.65000
Li  3.5590900455  2.0548416075  11.9544785415
Li  -0.0000022110  4.1096831985  1.6075693425
Li  3.5590900455  2.0548416075  7.5016403715
Li  -0.0000022110  4.1096831985  6.0604075125
Li  0.0000000000  0.0000000000  0.0000000000
Ga  3.5590900455  2.0548416075  3.0096512820
Ga  -0.0000022110  4.1096831985  10.5523966020
Ga  0.0000000000  0.0000000000  9.0413652615
Ga  0.0000000000  0.0000000000  4.5215639865
9
scale = 1.70000
Li  3.6669412590  2.1171095350  12.3167354670
Li  -0.0000022780  4.2342190530  1.6562835650
Li  3.6669412590  2.1171095350  7.7289628070
Li  -0.0000022780  4.2342190530  6.2440562250
Li  0.0000000000  0.0000000000  0.0000000000
Ga  3.6669412590  2.1171095350  3.1008528360
Ga  -0.0000022780  4.2342190530  10.8721661960
Ga  0.0000000000  0.0000000000  9.3153460270
Ga  0.0000000000  0.0000000000  4.6585810770
9
scale = 1.75000
Li  3.7747924725  2.1793774625  12.6789923925
Li  -0.0000023450  4.3587549075  1.7049977875
Li  3.7747924725  2.1793774625  7.9562852425
Li  -0.0000023450  4.3587549075  6.4277049375
Li  0.0000000000  0.0000000000  0.0000000000
Ga  3.7747924725  2.1793774625  3.1920543900
Ga  -0.0000023450  4.3587549075  11.1919357900
Ga  0.0000000000  0.0000000000  9.5893267925
Ga  0.0000000000  0.0000000000  4.7955981675
9
scale = 1.80000
Li  3.8826436860  2.2416453900  13.0412493180
Li  -0.0000024120  4.4832907620  1.7537120100
Li  3.8826436860  2.2416453900  8.1836076780
Li  -0.0000024120  4.4832907620  6.6113536500
Li  0.0000000000  0.0000000000  0.0000000000
Ga  3.8826436860  2.2416453900  3.2832559440
Ga  -0.0000024120  4.4832907620  11.5117053840
Ga  0.0000000000  0.0000000000  9.8633075580
Ga  0.0000000000  0.0000000000  4.9326152580
9
scale = 1.85000
Li  3.9904948995  2.3039133175  13.4035062435
Li  -0.0000024790  4.6078266165  1.8024262325
Li  3.9904948995  2.3039133175  8.4109301135
Li  -0.0000024790  4.6078266165  6.7950023625
Li  0.0000000000  0.0000000000  0.0000000000
Ga  3.9904948995  2.3039133175  3.3744574980
Ga  -0.0000024790  4.6078266165  11.8314749780
Ga  0.0000000000  0.0000000000  10.1372883235
Ga  0.0000000000  0.0000000000  5.0696323485
9
scale = 1.90000
Li  4.0983461130  2.3661812450  13.7657631690
Li  -0.0000025460  4.7323624710  1.8511404550
Li  4.0983461130  2.3661812450  8.6382525490
Li  -0.0000025460  4.7323624710  6.9786510750
Li  0.0000000000  0.0000000000  0.0000000000
Ga  4.0983461130  2.3661812450  3.4656590520
Ga  -0.0000025460  4.7323624710  12.1512445720
Ga  0.0000000000  0.0000000000  10.4112690890
Ga  0.0000000000  0.0000000000  5.2066494390
9
scale = 1.95000
Li  4.2061973265  2.4284491725  14.1280200945
Li  -0.0000026130  4.8568983255  1.8998546775
Li  4.2061973265  2.4284491725  8.8655749845
Li  -0.0000026130  4.8568983255  7.1622997875
Li  0.0000000000  0.0000000000  0.0000000000
Ga  4.2061973265  2.4284491725  3.5568606060
Ga  -0.0000026130  4.8568983255  12.4710141660
Ga  0.0000000000  0.0000000000  10.6852498545
Ga  0.0000000000  0.0000000000  5.3436665295
9
scale = 2.00000
Li  4.3140485400  2.4907171000  14.4902770200
Li  -0.0000026800  4.9814341800  1.9485689000
Li  4.3140485400  2.4907171000  9.0928974200
Li  -0.0000026800  4.9814341800  7.3459485000
Li  0.0000000000  0.0000000000  0.0000000000
Ga  4.3140485400  2.4907171000  3.6480621600
Ga  -0.0000026800  4.9814341800  12.7907837600
Ga  0.0000000000  0.0000000000  10.9592306200
Ga  0.0000000000  0.0000000000  5.4806836200
9
scale = 2.05000
Li  4.4218997535  2.5529850275  14.8525339455
Li  -0.0000027470  5.1059700345  1.9972831225
Li  4.4218997535  2.5529850275  9.3202198555
Li  -0.0000027470  5.1059700345  7.5295972125
Li  0.0000000000  0.0000000000  0.0000000000
Ga  4.4218997535  2.5529850275  3.7392637140
Ga  -0.0000027470  5.1059700345  13.1105533540
Ga  0.0000000000  0.0000000000  11.2332113855
Ga  0.0000000000  0.0000000000  5.6177007105
9
scale = 2.10000
Li  4.5297509670  2.6152529550  15.2147908710
Li  -0.0000028140  5.2305058890  2.0459973450
Li  4.5297509670  2.6152529550  9.5475422910
Li  -0.0000028140  5.2305058890  7.7132459250
Li  0.0000000000  0.0000000000  0.0000000000
Ga  4.5297509670  2.6152529550  3.8304652680
Ga  -0.0000028140  5.2305058890  13.4303229480
Ga  0.0000000000  0.0000000000  11.5071921510
Ga  0.0000000000  0.0000000000  5.7547178010
9
scale = 2.15000
Li  4.6376021805  2.6775208825  15.5770477965
Li  -0.0000028810  5.3550417435  2.0947115675
Li  4.6376021805  2.6775208825  9.7748647265
Li  -0.0000028810  5.3550417435  7.8968946375
Li  0.0000000000  0.0000000000  0.0000000000
Ga  4.6376021805  2.6775208825  3.9216668220
Ga  -0.0000028810  5.3550417435  13.7500925420
Ga  0.0000000000  0.0000000000  11.7811729165
Ga  0.0000000000  0.0000000000  5.8917348915
9
scale = 2.20000
Li  4.7454533940  2.7397888100  15.9393047220
Li  -0.0000029480  5.4795775980  2.1434257900
Li  4.7454533940  2.7397888100  10.0021871620
Li  -0.0000029480  5.4795775980  8.0805433500
Li  0.0000000000  0.0000000000  0.0000000000
Ga  4.7454533940  2.7397888100  4.0128683760
Ga  -0.0000029480  5.4795775980  14.0698621360
Ga  0.0000000000  0.0000000000  12.0551536820
Ga  0.0000000000  0.0000000000  6.0287519820
9
scale = 2.25000
Li  4.8533046075  2.8020567375  16.3015616475
Li  -0.0000030150  5.6041134525  2.1921400125
Li  4.8533046075  2.8020567375  10.2295095975
Li  -0.0000030150  5.6041134525  8.2641920625
Li  0.0000000000  0.0000000000  0.0000000000
Ga  4.8533046075  2.8020567375  4.1040699300
Ga  -0.0000030150  5.6041134525  14.3896317300
Ga  0.0000000000  0.0000000000  12.3291344475
Ga  0.0000000000  0.0000000000  6.1657690725
9
scale = 2.30000
Li  4.9611558210  2.8643246650  16.6638185730
Li  -0.0000030820  5.7286493070  2.2408542350
Li  4.9611558210  2.8643246650  10.4568320330
Li  -0.0000030820  5.7286493070  8.4478407750
Li  0.0000000000  0.0000000000  0.0000000000
Ga  4.9611558210  2.8643246650  4.1952714840
Ga  -0.0000030820  5.7286493070  14.7094013240
Ga  0.0000000000  0.0000000000  12.6031152130
Ga  0.0000000000  0.0000000000  6.3027861630
9
scale = 2.35000
Li  5.0690070345  2.9265925925  17.0260754985
Li  -0.0000031490  5.8531851615  2.2895684575
Li  5.0690070345  2.9265925925  10.6841544685
Li  -0.0000031490  5.8531851615  8.6314894875
Li  0.0000000000  0.0000000000  0.0000000000
Ga  5.0690070345  2.9265925925  4.2864730380
Ga  -0.0000031490  5.8531851615  15.0291709180
Ga  0.0000000000  0.0000000000  12.8770959785
Ga  0.0000000000  0.0000000000  6.4398032535
9
scale = 2.40000
Li  5.1768582480  2.9888605200  17.3883324240
Li  -0.0000032160  5.9777210160  2.3382826800
Li  5.1768582480  2.9888605200  10.9114769040
Li  -0.0000032160  5.9777210160  8.8151382000
Li  0.0000000000  0.0000000000  0.0000000000
Ga  5.1768582480  2.9888605200  4.3776745920
Ga  -0.0000032160  5.9777210160  15.3489405120
Ga  0.0000000000  0.0000000000  13.1510767440
Ga  0.0000000000  0.0000000000  6.5768203440
9
scale = 2.45000
Li  5.2847094615  3.0511284475  17.7505893495
Li  -0.0000032830  6.1022568705  2.3869969025
Li  5.2847094615  3.0511284475  11.1387993395
Li  -0.0000032830  6.1022568705  8.9987869125
Li  0.0000000000  0.0000000000  0.0000000000
Ga  5.2847094615  3.0511284475  4.4688761460
Ga  -0.0000032830  6.1022568705  15.6687101060
Ga  0.0000000000  0.0000000000  13.4250575095
Ga  0.0000000000  0.0000000000  6.7138374345
