9
scale = 0.75000
Li  0.0019716450  2.0561201850  4.1199320325
Li  1.7783212950  1.0266006675  2.5120752075
Li  0.0000000000  0.0000000000  3.3161875650
Li  0.0001924050  2.0551472400  6.3236570925
Li  1.7801005350  1.0275736200  0.3083501550
In  1.7797779225  3.0824490825  1.1116445925
In  0.0005150175  0.0002717700  5.5203626475
In  -0.0006344325  2.0546818200  1.9492663800
In  1.7809273725  1.0280390400  4.6827408675
9
scale = 0.80000
Li  0.0021030880  2.1931948640  4.3945941680
Li  1.8968760480  1.0950407120  2.6795468880
Li  0.0000000000  0.0000000000  3.5372667360
Li  0.0002052320  2.1921570560  6.7452342320
Li  1.8987739040  1.0960785280  0.3289068320
In  1.8984297840  3.2879456880  1.1857542320
In  0.0005493520  0.0002898880  5.8883868240
In  -0.0006767280  2.1916606080  2.0792174720
In  1.8996558640  1.0965749760  4.9949235920
9
scale = 0.85000
Li  0.0022345310  2.3302695430  4.6692563035
Li  2.0154308010  1.1634807565  2.8470185685
Li  0.0000000000  0.0000000000  3.7583459070
Li  0.0002180590  2.3291668720  7.1668113715
Li  2.0174472730  1.1645834360  0.3494635090
In  2.0170816455  3.4934422935  1.2598638715
In  0.0005836865  0.0003080060  6.2564110005
In  -0.0007190235  2.3286393960  2.2091685640
In  2.0183843555  1.1651109120  5.3071063165
9
scale = 0.90000
Li  0.0023659740  2.4673442220  4.9439184390
Li  2.1339855540  1.2319208010  3.0144902490
Li  0.0000000000  0.0000000000  3.9794250780
Li  0.0002308860  2.4661766880  7.5883885110
Li  2.1361206420  1.2330883440  0.3700201860
In  2.1357335070  3.6989388990  1.3339735110
In  0.0006180210  0.0003261240  6.6244351770
In  -0.0007613190  2.4656181840  2.3391196560
In  2.1371128470  1.2336468480  5.6192890410
9
scale = 0.95000
Li  0.0024974170  2.6044189010  5.2185805745
Li  2.2525403070  1.3003608455  3.1819619295
Li  0.0000000000  0.0000000000  4.2005042490
Li  0.0002437130  2.6031865040  8.0099656505
Li  2.2547940110  1.3015932520  0.3905768630
In  2.2543853685  3.9044355045  1.4080831505
In  0.0006523555  0.0003442420  6.9924593535
In  -0.0008036145  2.6025969720  2.4690707480
In  2.2558413385  1.3021827840  5.9314717655
9
scale = 1.00000
Li  0.0026288600  2.7414935800  5.4932427100
Li  2.3710950600  1.3688008900  3.3494336100
Li  0.0000000000  0.0000000000  4.4215834200
Li  0.0002565400  2.7401963200  8.4315427900
Li  2.3734673800  1.3700981600  0.4111335400
In  2.3730372300  4.1099321100  1.4821927900
In  0.0006866900  0.0003623600  7.3604835300
In  -0.0008459100  2.7395757600  2.5990218400
In  2.3745698300  1.3707187200  6.2436544900
9
scale = 1.05000
Li  0.0027603030  2.8785682590  5.7679048455
Li  2.4896498130  1.4372409345  3.5169052905
Li  0.0000000000  0.0000000000  4.6426625910
Li  0.0002693670  2.8772061360  8.8531199295
Li  2.4921407490  1.4386030680  0.4316902170
In  2.4916890915  4.3154287155  1.5563024295
In  0.0007210245  0.0003804780  7.7285077065
In  -0.0008882055  2.8765545480  2.7289729320
In  2.4932983215  1.4392546560  6.5558372145
9
scale = 1.10000
Li  0.0028917460  3.0156429380  6.0425669810
Li  2.6082045660  1.5056809790  3.6843769710
Li  0.0000000000  0.0000000000  4.8637417620
Li  0.0002821940  3.0142159520  9.2746970690
Li  2.6108141180  1.5071079760  0.4522468940
In  2.6103409530  4.5209253210  1.6304120690
In  0.0007553590  0.0003985960  8.0965318830
In  -0.0009305010  3.0135333360  2.8589240240
In  2.6120268130  1.5077905920  6.8680199390
9
scale = 1.15000
Li  0.0030231890  3.1527176170  6.3172291165
Li  2.7267593190  1.5741210235  3.8518486515
Li  0.0000000000  0.0000000000  5.0848209330
Li  0.0002950210  3.1512257680  9.6962742085
Li  2.7294874870  1.5756128840  0.4728035710
In  2.7289928145  4.7264219265  1.7045217085
In  0.0007896935  0.0004167140  8.4645560595
In  -0.0009727965  3.1505121240  2.9888751160
In  2.7307553045  1.5763265280  7.1802026635
9
scale = 1.20000
Li  0.0031546320  3.2897922960  6.5918912520
Li  2.8453140720  1.6425610680  4.0193203320
Li  0.0000000000  0.0000000000  5.3059001040
Li  0.0003078480  3.2882355840  10.1178513480
Li  2.8481608560  1.6441177920  0.4933602480
In  2.8476446760  4.9319185320  1.7786313480
In  0.0008240280  0.0004348320  8.8325802360
In  -0.0010150920  3.2874909120  3.1188262080
In  2.8494837960  1.6448624640  7.4923853880
9
scale = 1.25000
Li  0.0032860750  3.4268669750  6.8665533875
Li  2.9638688250  1.7110011125  4.1867920125
Li  0.0000000000  0.0000000000  5.5269792750
Li  0.0003206750  3.4252454000  10.5394284875
Li  2.9668342250  1.7126227000  0.5139169250
In  2.9662965375  5.1374151375  1.8527409875
In  0.0008583625  0.0004529500  9.2006044125
In  -0.0010573875  3.4244697000  3.2487773000
In  2.9682122875  1.7133984000  7.8045681125
9
scale = 1.30000
Li  0.0034175180  3.5639416540  7.1412155230
Li  3.0824235780  1.7794411570  4.3542636930
Li  0.0000000000  0.0000000000  5.7480584460
Li  0.0003335020  3.5622552160  10.9610056270
Li  3.0855075940  1.7811276080  0.5344736020
In  3.0849483990  5.3429117430  1.9268506270
In  0.0008926970  0.0004710680  9.5686285890
In  -0.0010996830  3.5614484880  3.3787283920
In  3.0869407790  1.7819343360  8.1167508370
9
scale = 1.35000
Li  0.0035489610  3.7010163330  7.4158776585
Li  3.2009783310  1.8478812015  4.5217353735
Li  0.0000000000  0.0000000000  5.9691376170
Li  0.0003463290  3.6992650320  11.3825827665
Li  3.2041809630  1.8496325160  0.5550302790
In  3.2036002605  5.5484083485  2.0009602665
In  0.0009270315  0.0004891860  9.9366527655
In  -0.0011419785  3.6984272760  3.5086794840
In  3.2056692705  1.8504702720  8.4289335615
9
scale = 1.40000
Li  0.0036804040  3.8380910120  7.6905397940
Li  3.3195330840  1.9163212460  4.6892070540
Li  0.0000000000  0.0000000000  6.1902167880
Li  0.0003591560  3.8362748480  11.8041599060
Li  3.3228543320  1.9181374240  0.5755869560
In  3.3222521220  5.7539049540  2.0750699060
In  0.0009613660  0.0005073040  10.3046769420
In  -0.0011842740  3.8354060640  3.6386305760
In  3.3243977620  1.9190062080  8.7411162860
9
scale = 1.45000
Li  0.0038118470  3.9751656910  7.9652019295
Li  3.4380878370  1.9847612905  4.8566787345
Li  0.0000000000  0.0000000000  6.4112959590
Li  0.0003719830  3.9732846640  12.2257370455
Li  3.4415277010  1.9866423320  0.5961436330
In  3.4409039835  5.9594015595  2.1491795455
In  0.0009957005  0.0005254220  10.6727011185
In  -0.0012265695  3.9723848520  3.7685816680
In  3.4431262535  1.9875421440  9.0532990105
9
scale = 1.50000
Li  0.0039432900  4.1122403700  8.2398640650
Li  3.5566425900  2.0532013350  5.0241504150
Li  0.0000000000  0.0000000000  6.6323751300
Li  0.0003848100  4.1102944800  12.6473141850
Li  3.5602010700  2.0551472400  0.6167003100
In  3.5595558450  6.1648981650  2.2232891850
In  0.0010300350  0.0005435400  11.0407252950
In  -0.0012688650  4.1093636400  3.8985327600
In  3.5618547450  2.0560780800  9.3654817350
9
scale = 1.55000
Li  0.0040747330  4.2493150490  8.5145262005
Li  3.6751973430  2.1216413795  5.1916220955
Li  0.0000000000  0.0000000000  6.8534543010
Li  0.0003976370  4.2473042960  13.0688913245
Li  3.6788744390  2.1236521480  0.6372569870
In  3.6782077065  6.3703947705  2.2973988245
In  0.0010643695  0.0005616580  11.4087494715
In  -0.0013111605  4.2463424280  4.0284838520
In  3.6805832365  2.1246140160  9.6776644595
9
scale = 1.60000
Li  0.0042061760  4.3863897280  8.7891883360
Li  3.7937520960  2.1900814240  5.3590937760
Li  0.0000000000  0.0000000000  7.0745334720
Li  0.0004104640  4.3843141120  13.4904684640
Li  3.7975478080  2.1921570560  0.6578136640
In  3.7968595680  6.5758913760  2.3715084640
In  0.0010987040  0.0005797760  11.7767736480
In  -0.0013534560  4.3833212160  4.1584349440
In  3.7993117280  2.1931499520  9.9898471840
9
scale = 1.65000
Li  0.0043376190  4.5234644070  9.0638504715
Li  3.9123068490  2.2585214685  5.5265654565
Li  0.0000000000  0.0000000000  7.2956126430
Li  0.0004232910  4.5213239280  13.9120456035
Li  3.9162211770  2.2606619640  0.6783703410
In  3.9155114295  6.7813879815  2.4456181035
In  0.0011330385  0.0005978940  12.1447978245
In  -0.0013957515  4.5203000040  4.2883860360
In  3.9180402195  2.2616858880  10.3020299085
9
scale = 1.70000
Li  0.0044690620  4.6605390860  9.3385126070
Li  4.0308616020  2.3269615130  5.6940371370
Li  0.0000000000  0.0000000000  7.5166918140
Li  0.0004361180  4.6583337440  14.3336227430
Li  4.0348945460  2.3291668720  0.6989270180
In  4.0341632910  6.9868845870  2.5197277430
In  0.0011673730  0.0006160120  12.5128220010
In  -0.0014380470  4.6572787920  4.4183371280
In  4.0367687110  2.3302218240  10.6142126330
9
scale = 1.75000
Li  0.0046005050  4.7976137650  9.6131747425
Li  4.1494163550  2.3954015575  5.8615088175
Li  0.0000000000  0.0000000000  7.7377709850
Li  0.0004489450  4.7953435600  14.7551998825
Li  4.1535679150  2.3976717800  0.7194836950
In  4.1528151525  7.1923811925  2.5938373825
In  0.0012017075  0.0006341300  12.8808461775
In  -0.0014803425  4.7942575800  4.5482882200
In  4.1554972025  2.3987577600  10.9263953575
9
scale = 1.80000
Li  0.0047319480  4.9346884440  9.8878368780
Li  4.2679711080  2.4638416020  6.0289804980
Li  0.0000000000  0.0000000000  7.9588501560
Li  0.0004617720  4.9323533760  15.1767770220
Li  4.2722412840  2.4661766880  0.7400403720
In  4.2714670140  7.3978777980  2.6679470220
In  0.0012360420  0.0006522480  13.2488703540
In  -0.0015226380  4.9312363680  4.6782393120
In  4.2742256940  2.4672936960  11.2385780820
9
scale = 1.85000
Li  0.0048633910  5.0717631230  10.1624990135
Li  4.3865258610  2.5322816465  6.1964521785
Li  0.0000000000  0.0000000000  8.1799293270
Li  0.0004745990  5.0693631920  15.5983541615
Li  4.3909146530  2.5346815960  0.7605970490
In  4.3901188755  7.6033744035  2.7420566615
In  0.0012703765  0.0006703660  13.6168945305
In  -0.0015649335  5.0682151560  4.8081904040
In  4.3929541855  2.5358296320  11.5507608065
9
scale = 1.90000
Li  0.0049948340  5.2088378020  10.4371611490
Li  4.5050806140  2.6007216910  6.3639238590
Li  0.0000000000  0.0000000000  8.4010084980
Li  0.0004874260  5.2063730080  16.0199313010
Li  4.5095880220  2.6031865040  0.7811537260
In  4.5087707370  7.8088710090  2.8161663010
In  0.0013047110  0.0006884840  13.9849187070
In  -0.0016072290  5.2051939440  4.9381414960
In  4.5116826770  2.6043655680  11.8629435310
9
scale = 1.95000
Li  0.0051262770  5.3459124810  10.7118232845
Li  4.6236353670  2.6691617355  6.5313955395
Li  0.0000000000  0.0000000000  8.6220876690
Li  0.0005002530  5.3433828240  16.4415084405
Li  4.6282613910  2.6716914120  0.8017104030
In  4.6274225985  8.0143676145  2.8902759405
In  0.0013390455  0.0007066020  14.3529428835
In  -0.0016495245  5.3421727320  5.0680925880
In  4.6304111685  2.6729015040  12.1751262555
9
scale = 2.00000
Li  0.0052577200  5.4829871600  10.9864854200
Li  4.7421901200  2.7376017800  6.6988672200
Li  0.0000000000  0.0000000000  8.8431668400
Li  0.0005130800  5.4803926400  16.8630855800
Li  4.7469347600  2.7401963200  0.8222670800
In  4.7460744600  8.2198642200  2.9643855800
In  0.0013733800  0.0007247200  14.7209670600
In  -0.0016918200  5.4791515200  5.1980436800
In  4.7491396600  2.7414374400  12.4873089800
9
scale = 2.05000
Li  0.0053891630  5.6200618390  11.2611475555
Li  4.8607448730  2.8060418245  6.8663389005
Li  0.0000000000  0.0000000000  9.0642460110
Li  0.0005259070  5.6174024560  17.2846627195
Li  4.8656081290  2.8087012280  0.8428237570
In  4.8647263215  8.4253608255  3.0384952195
In  0.0014077145  0.0007428380  15.0889912365
In  -0.0017341155  5.6161303080  5.3279947720
In  4.8678681515  2.8099733760  12.7994917045
9
scale = 2.10000
Li  0.0055206060  5.7571365180  11.5358096910
Li  4.9792996260  2.8744818690  7.0338105810
Li  0.0000000000  0.0000000000  9.2853251820
Li  0.0005387340  5.7544122720  17.7062398590
Li  4.9842814980  2.8772061360  0.8633804340
In  4.9833781830  8.6308574310  3.1126048590
In  0.0014420490  0.0007609560  15.4570154130
In  -0.0017764110  5.7531090960  5.4579458640
In  4.9865966430  2.8785093120  13.1116744290
9
scale = 2.15000
Li  0.0056520490  5.8942111970  11.8104718265
Li  5.0978543790  2.9429219135  7.2012822615
Li  0.0000000000  0.0000000000  9.5064043530
Li  0.0005515610  5.8914220880  18.1278169985
Li  5.1029548670  2.9457110440  0.8839371110
In  5.1020300445  8.8363540365  3.1867144985
In  0.0014763835  0.0007790740  15.8250395895
In  -0.0018187065  5.8900878840  5.5878969560
In  5.1053251345  2.9470452480  13.4238571535
9
scale = 2.20000
Li  0.0057834920  6.0312858760  12.0851339620
Li  5.2164091320  3.0113619580  7.3687539420
Li  0.0000000000  0.0000000000  9.7274835240
Li  0.0005643880  6.0284319040  18.5493941380
Li  5.2216282360  3.0142159520  0.9044937880
In  5.2206819060  9.0418506420  3.2608241380
In  0.0015107180  0.0007971920  16.1930637660
In  -0.0018610020  6.0270666720  5.7178480480
In  5.2240536260  3.0155811840  13.7360398780
9
scale = 2.25000
Li  0.0059149350  6.1683605550  12.3597960975
Li  5.3349638850  3.0798020025  7.5362256225
Li  0.0000000000  0.0000000000  9.9485626950
Li  0.0005772150  6.1654417200  18.9709712775
Li  5.3403016050  3.0827208600  0.9250504650
In  5.3393337675  9.2473472475  3.3349337775
In  0.0015450525  0.0008153100  16.5610879425
In  -0.0019032975  6.1640454600  5.8477991400
In  5.3427821175  3.0841171200  14.0482226025
9
scale = 2.30000
Li  0.0060463780  6.3054352340  12.6344582330
Li  5.4535186380  3.1482420470  7.7036973030
Li  0.0000000000  0.0000000000  10.1696418660
Li  0.0005900420  6.3024515360  19.3925484170
Li  5.4589749740  3.1512257680  0.9456071420
In  5.4579856290  9.4528438530  3.4090434170
In  0.0015793870  0.0008334280  16.9291121190
In  -0.0019455930  6.3010242480  5.9777502320
In  5.4615106090  3.1526530560  14.3604053270
9
scale = 2.35000
Li  0.0061778210  6.4425099130  12.9091203685
Li  5.5720733910  3.2166820915  7.8711689835
Li  0.0000000000  0.0000000000  10.3907210370
Li  0.0006028690  6.4394613520  19.8141255565
Li  5.5776483430  3.2197306760  0.9661638190
In  5.5766374905  9.6583404585  3.4831530565
In  0.0016137215  0.0008515460  17.2971362955
In  -0.0019878885  6.4380030360  6.1077013240
In  5.5802391005  3.2211889920  14.6725880515
9
scale = 2.40000
Li  0.0063092640  6.5795845920  13.1837825040
Li  5.6906281440  3.2851221360  8.0386406640
Li  0.0000000000  0.0000000000  10.6118002080
Li  0.0006156960  6.5764711680  20.2357026960
Li  5.6963217120  3.2882355840  0.9867204960
In  5.6952893520  9.8638370640  3.5572626960
In  0.0016480560  0.0008696640  17.6651604720
In  -0.0020301840  6.5749818240  6.2376524160
In  5.6989675920  3.2897249280  14.9847707760
9
scale = 2.45000
Li  0.0064407070  6.7166592710  13.4584446395
Li  5.8091828970  3.3535621805  8.2061123445
Li  0.0000000000  0.0000000000  10.8328793790
Li  0.0006285230  6.7134809840  20.6572798355
Li  5.8149950810  3.3567404920  1.0072771730
In  5.8139412135  10.0693336695  3.6313723355
In  0.0016823905  0.0008877820  18.0331846485
In  -0.0020724795  6.7119606120  6.3676035080
In  5.8176960835  3.3582608640  15.2969535005
