7
scale = 0.75000
Li  2.3945641200  1.4968011450  6.8053175400
Li  1.6989679125  1.0619958300  4.8284428875
Li  3.0901603350  1.9316064675  8.7821921925
Li  1.0260347625  0.6413568075  2.9159763525
Li  3.7630934850  2.3522454825  10.6946587275
Sn  0.3514653600  0.2196949950  0.9988596000
Sn  4.4376628875  2.7739073025  12.6117754800
7
scale = 0.80000
Li  2.5542017280  1.5965878880  7.2590053760
Li  1.8122324400  1.1327955520  5.1503390800
Li  3.2961710240  2.0603802320  9.3676716720
Li  1.0944370800  0.6841139280  3.1103747760
Li  4.0139663840  2.5090618480  11.4076359760
Sn  0.3748963840  0.2343413280  1.0654502400
Sn  4.7335070800  2.9588344560  13.4525605120
7
scale = 0.85000
Li  2.7138393360  1.6963746310  7.7126932120
Li  1.9254969675  1.2035952740  5.4722352725
Li  3.5021817130  2.1891539965  9.9531511515
Li  1.1628393975  0.7268710485  3.3047731995
Li  4.2648392830  2.6658782135  12.1206132245
Sn  0.3983274080  0.2489876610  1.1320408800
Sn  5.0293512725  3.1437616095  14.2933455440
7
scale = 0.90000
Li  2.8734769440  1.7961613740  8.1663810480
Li  2.0387614950  1.2743949960  5.7941314650
Li  3.7081924020  2.3179277610  10.5386306310
Li  1.2312417150  0.7696281690  3.4991716230
Li  4.5157121820  2.8226945790  12.8335904730
Sn  0.4217584320  0.2636339940  1.1986315200
Sn  5.3251954650  3.3286887630  15.1341305760
7
scale = 0.95000
Li  3.0331145520  1.8959481170  8.6200688840
Li  2.1520260225  1.3451947180  6.1160276575
Li  3.9142030910  2.4467015255  11.1241101105
Li  1.2996440325  0.8123852895  3.6935700465
Li  4.7665850810  2.9795109445  13.5465677215
Sn  0.4451894560  0.2782803270  1.2652221600
Sn  5.6210396575  3.5136159165  15.9749156080
7
scale = 1.00000
Li  3.1927521600  1.9957348600  9.0737567200
Li  2.2652905500  1.4159944400  6.4379238500
Li  4.1202137800  2.5754752900  11.7095895900
Li  1.3680463500  0.8551424100  3.8879684700
Li  5.0174579800  3.1363273100  14.2595449700
Sn  0.4686204800  0.2929266600  1.3318128000
Sn  5.9168838500  3.6985430700  16.8157006400
7
scale = 1.05000
Li  3.3523897680  2.0955216030  9.5274445560
Li  2.3785550775  1.4867941620  6.7598200425
Li  4.3262244690  2.7042490545  12.2950690695
Li  1.4364486675  0.8978995305  4.0823668935
Li  5.2683308790  3.2931436755  14.9725222185
Sn  0.4920515040  0.3075729930  1.3984034400
Sn  6.2127280425  3.8834702235  17.6564856720
7
scale = 1.10000
Li  3.5120273760  2.1953083460  9.9811323920
Li  2.4918196050  1.5575938840  7.0817162350
Li  4.5322351580  2.8330228190  12.8805485490
Li  1.5048509850  0.9406566510  4.2767653170
Li  5.5192037780  3.4499600410  15.6854994670
Sn  0.5154825280  0.3222193260  1.4649940800
Sn  6.5085722350  4.0683973770  18.4972707040
7
scale = 1.15000
Li  3.6716649840  2.2950950890  10.4348202280
Li  2.6050841325  1.6283936060  7.4036124275
Li  4.7382458470  2.9617965835  13.4660280285
Li  1.5732533025  0.9834137715  4.4711637405
Li  5.7700766770  3.6067764065  16.3984767155
Sn  0.5389135520  0.3368656590  1.5315847200
Sn  6.8044164275  4.2533245305  19.3380557360
7
scale = 1.20000
Li  3.8313025920  2.3948818320  10.8885080640
Li  2.7183486600  1.6991933280  7.7255086200
Li  4.9442565360  3.0905703480  14.0515075080
Li  1.6416556200  1.0261708920  4.6655621640
Li  6.0209495760  3.7635927720  17.1114539640
Sn  0.5623445760  0.3515119920  1.5981753600
Sn  7.1002606200  4.4382516840  20.1788407680
7
scale = 1.25000
Li  3.9909402000  2.4946685750  11.3421959000
Li  2.8316131875  1.7699930500  8.0474048125
Li  5.1502672250  3.2193441125  14.6369869875
Li  1.7100579375  1.0689280125  4.8599605875
Li  6.2718224750  3.9204091375  17.8244312125
Sn  0.5857756000  0.3661583250  1.6647660000
Sn  7.3961048125  4.6231788375  21.0196258000
7
scale = 1.30000
Li  4.1505778080  2.5944553180  11.7958837360
Li  2.9448777150  1.8407927720  8.3693010050
Li  5.3562779140  3.3481178770  15.2224664670
Li  1.7784602550  1.1116851330  5.0543590110
Li  6.5226953740  4.0772255030  18.5374084610
Sn  0.6092066240  0.3808046580  1.7313566400
Sn  7.6919490050  4.8081059910  21.8604108320
7
scale = 1.35000
Li  4.3102154160  2.6942420610  12.2495715720
Li  3.0581422425  1.9115924940  8.6911971975
Li  5.5622886030  3.4768916415  15.8079459465
Li  1.8468625725  1.1544422535  5.2487574345
Li  6.7735682730  4.2340418685  19.2503857095
Sn  0.6326376480  0.3954509910  1.7979472800
Sn  7.9877931975  4.9930331445  22.7011958640
7
scale = 1.40000
Li  4.4698530240  2.7940288040  12.7032594080
Li  3.1714067700  1.9823922160  9.0130933900
Li  5.7682992920  3.6056654060  16.3934254260
Li  1.9152648900  1.1971993740  5.4431558580
Li  7.0244411720  4.3908582340  19.9633629580
Sn  0.6560686720  0.4100973240  1.8645379200
Sn  8.2836373900  5.1779602980  23.5419808960
7
scale = 1.45000
Li  4.6294906320  2.8938155470  13.1569472440
Li  3.2846712975  2.0531919380  9.3349895825
Li  5.9743099810  3.7344391705  16.9789049055
Li  1.9836672075  1.2399564945  5.6375542815
Li  7.2753140710  4.5476745995  20.6763402065
Sn  0.6794996960  0.4247436570  1.9311285600
Sn  8.5794815825  5.3628874515  24.3827659280
7
scale = 1.50000
Li  4.7891282400  2.9936022900  13.6106350800
Li  3.3979358250  2.1239916600  9.6568857750
Li  6.1803206700  3.8632129350  17.5643843850
Li  2.0520695250  1.2827136150  5.8319527050
Li  7.5261869700  4.7044909650  21.3893174550
Sn  0.7029307200  0.4393899900  1.9977192000
Sn  8.8753257750  5.5478146050  25.2235509600
7
scale = 1.55000
Li  4.9487658480  3.0933890330  14.0643229160
Li  3.5112003525  2.1947913820  9.9787819675
Li  6.3863313590  3.9919866995  18.1498638645
Li  2.1204718425  1.3254707355  6.0263511285
Li  7.7770598690  4.8613073305  22.1022947035
Sn  0.7263617440  0.4540363230  2.0643098400
Sn  9.1711699675  5.7327417585  26.0643359920
7
scale = 1.60000
Li  5.1084034560  3.1931757760  14.5180107520
Li  3.6244648800  2.2655911040  10.3006781600
Li  6.5923420480  4.1207604640  18.7353433440
Li  2.1888741600  1.3682278560  6.2207495520
Li  8.0279327680  5.0181236960  22.8152719520
Sn  0.7497927680  0.4686826560  2.1309004800
Sn  9.4670141600  5.9176689120  26.9051210240
7
scale = 1.65000
Li  5.2680410640  3.2929625190  14.9716985880
Li  3.7377294075  2.3363908260  10.6225743525
Li  6.7983527370  4.2495342285  19.3208228235
Li  2.2572764775  1.4109849765  6.4151479755
Li  8.2788056670  5.1749400615  23.5282492005
Sn  0.7732237920  0.4833289890  2.1974911200
Sn  9.7628583525  6.1025960655  27.7459060560
7
scale = 1.70000
Li  5.4276786720  3.3927492620  15.4253864240
Li  3.8509939350  2.4071905480  10.9444705450
Li  7.0043634260  4.3783079930  19.9063023030
Li  2.3256787950  1.4537420970  6.6095463990
Li  8.5296785660  5.3317564270  24.2412264490
Sn  0.7966548160  0.4979753220  2.2640817600
Sn  10.0587025450  6.2875232190  28.5866910880
7
scale = 1.75000
Li  5.5873162800  3.4925360050  15.8790742600
Li  3.9642584625  2.4779902700  11.2663667375
Li  7.2103741150  4.5070817575  20.4917817825
Li  2.3940811125  1.4964992175  6.8039448225
Li  8.7805514650  5.4885727925  24.9542036975
Sn  0.8200858400  0.5126216550  2.3306724000
Sn  10.3545467375  6.4724503725  29.4274761200
7
scale = 1.80000
Li  5.7469538880  3.5923227480  16.3327620960
Li  4.0775229900  2.5487899920  11.5882629300
Li  7.4163848040  4.6358555220  21.0772612620
Li  2.4624834300  1.5392563380  6.9983432460
Li  9.0314243640  5.6453891580  25.6671809460
Sn  0.8435168640  0.5272679880  2.3972630400
Sn  10.6503909300  6.6573775260  30.2682611520
7
scale = 1.85000
Li  5.9065914960  3.6921094910  16.7864499320
Li  4.1907875175  2.6195897140  11.9101591225
Li  7.6223954930  4.7646292865  21.6627407415
Li  2.5308857475  1.5820134585  7.1927416695
Li  9.2822972630  5.8022055235  26.3801581945
Sn  0.8669478880  0.5419143210  2.4638536800
Sn  10.9462351225  6.8423046795  31.1090461840
7
scale = 1.90000
Li  6.0662291040  3.7918962340  17.2401377680
Li  4.3040520450  2.6903894360  12.2320553150
Li  7.8284061820  4.8934030510  22.2482202210
Li  2.5992880650  1.6247705790  7.3871400930
Li  9.5331701620  5.9590218890  27.0931354430
Sn  0.8903789120  0.5565606540  2.5304443200
Sn  11.2420793150  7.0272318330  31.9498312160
7
scale = 1.95000
Li  6.2258667120  3.8916829770  17.6938256040
Li  4.4173165725  2.7611891580  12.5539515075
Li  8.0344168710  5.0221768155  22.8336997005
Li  2.6676903825  1.6675276995  7.5815385165
Li  9.7840430610  6.1158382545  27.8061126915
Sn  0.9138099360  0.5712069870  2.5970349600
Sn  11.5379235075  7.2121589865  32.7906162480
7
scale = 2.00000
Li  6.3855043200  3.9914697200  18.1475134400
Li  4.5305811000  2.8319888800  12.8758477000
Li  8.2404275600  5.1509505800  23.4191791800
Li  2.7360927000  1.7102848200  7.7759369400
Li  10.0349159600  6.2726546200  28.5190899400
Sn  0.9372409600  0.5858533200  2.6636256000
Sn  11.8337677000  7.3970861400  33.6314012800
7
scale = 2.05000
Li  6.5451419280  4.0912564630  18.6012012760
Li  4.6438456275  2.9027886020  13.1977438925
Li  8.4464382490  5.2797243445  24.0046586595
Li  2.8044950175  1.7530419405  7.9703353635
Li  10.2857888590  6.4294709855  29.2320671885
Sn  0.9606719840  0.6004996530  2.7302162400
Sn  12.1296118925  7.5820132935  34.4721863120
7
scale = 2.10000
Li  6.7047795360  4.1910432060  19.0548891120
Li  4.7571101550  2.9735883240  13.5196400850
Li  8.6524489380  5.4084981090  24.5901381390
Li  2.8728973350  1.7957990610  8.1647337870
Li  10.5366617580  6.5862873510  29.9450444370
Sn  0.9841030080  0.6151459860  2.7968068800
Sn  12.4254560850  7.7669404470  35.3129713440
7
scale = 2.15000
Li  6.8644171440  4.2908299490  19.5085769480
Li  4.8703746825  3.0443880460  13.8415362775
Li  8.8584596270  5.5372718735  25.1756176185
Li  2.9412996525  1.8385561815  8.3591322105
Li  10.7875346570  6.7431037165  30.6580216855
Sn  1.0075340320  0.6297923190  2.8633975200
Sn  12.7213002775  7.9518676005  36.1537563760
7
scale = 2.20000
Li  7.0240547520  4.3906166920  19.9622647840
Li  4.9836392100  3.1151877680  14.1634324700
Li  9.0644703160  5.6660456380  25.7610970980
Li  3.0097019700  1.8813133020  8.5535306340
Li  11.0384075560  6.8999200820  31.3709989340
Sn  1.0309650560  0.6444386520  2.9299881600
Sn  13.0171444700  8.1367947540  36.9945414080
7
scale = 2.25000
Li  7.1836923600  4.4904034350  20.4159526200
Li  5.0969037375  3.1859874900  14.4853286625
Li  9.2704810050  5.7948194025  26.3465765775
Li  3.0781042875  1.9240704225  8.7479290575
Li  11.2892804550  7.0567364475  32.0839761825
Sn  1.0543960800  0.6590849850  2.9965788000
Sn  13.3129886625  8.3217219075  37.8353264400
7
scale = 2.30000
Li  7.3433299680  4.5901901780  20.8696404560
Li  5.2101682650  3.2567872120  14.8072248550
Li  9.4764916940  5.9235931670  26.9320560570
Li  3.1465066050  1.9668275430  8.9423274810
Li  11.5401533540  7.2135528130  32.7969534310
Sn  1.0778271040  0.6737313180  3.0631694400
Sn  13.6088328550  8.5066490610  38.6761114720
7
scale = 2.35000
Li  7.5029675760  4.6899769210  21.3233282920
Li  5.3234327925  3.3275869340  15.1291210475
Li  9.6825023830  6.0523669315  27.5175355365
Li  3.2149089225  2.0095846635  9.1367259045
Li  11.7910262530  7.3703691785  33.5099306795
Sn  1.1012581280  0.6883776510  3.1297600800
Sn  13.9046770475  8.6915762145  39.5168965040
7
scale = 2.40000
Li  7.6626051840  4.7897636640  21.7770161280
Li  5.4366973200  3.3983866560  15.4510172400
Li  9.8885130720  6.1811406960  28.1030150160
Li  3.2833112400  2.0523417840  9.3311243280
Li  12.0418991520  7.5271855440  34.2229079280
Sn  1.1246891520  0.7030239840  3.1963507200
Sn  14.2005212400  8.8765033680  40.3576815360
7
scale = 2.45000
Li  7.8222427920  4.8895504070  22.2307039640
Li  5.5499618475  3.4691863780  15.7729134325
Li  10.0945237610  6.3099144605  28.6884944955
Li  3.3517135575  2.0950989045  9.5255227515
Li  12.2927720510  7.6840019095  34.9358851765
Sn  1.1481201760  0.7176703170  3.2629413600
Sn  14.4963654325  9.0614305215  41.1984665680
