22
scale = 0.75000
Li  0.0000000000  0.0000000000  3.4433232825
Li  -1.6231981650  2.8114616850  -1.1477744250
Li  3.2463963225  0.0000000000  -1.1477744250
Li  1.6231981650  2.8114616850  1.1477744250
Li  0.6254214975  1.0832618100  1.7689591275
Li  5.2419496500  0.0000000000  -0.5265897225
Li  -2.6209748250  4.5396615675  -0.5265897225
Li  4.6165281525  1.0832618100  -2.2955488575
Li  0.0000000000  2.1665236200  0.0000000000
Li  -0.6254214975  1.0832618100  5.1176874375
Li  -1.3701318300  4.5396615675  -2.2955488575
Li  1.2508429950  0.0000000000  5.1176874375
Li  1.8762644925  1.0832618100  0.0000000000
Li  2.6209748250  4.5396615675  0.5265897225
Li  3.2463963225  3.4563997500  2.2955488575
Li  1.3701318300  4.5396615675  2.2955488575
Hf  1.9937093775  3.4532059350  -2.8195308375
Hf  2.5053738975  0.0000000000  1.7715668700
Hf  -1.2526869525  2.1697174425  1.7715668700
Hf  1.2526869525  2.1697174425  -1.7715668700
Hf  3.9874187475  0.0000000000  2.8195308375
Hf  -1.9937093700  3.4532059350  2.8195308375
22
scale = 0.80000
Li  0.0000000000  0.0000000000  3.6728781680
Li  -1.7314113760  2.9988924640  -1.2242927200
Li  3.4628227440  0.0000000000  -1.2242927200
Li  1.7314113760  2.9988924640  1.2242927200
Li  0.6671162640  1.1554792640  1.8868897360
Li  5.5914129600  0.0000000000  -0.5616957040
Li  -2.7957064800  4.8423056720  -0.5616957040
Li  4.9242966960  1.1554792640  -2.4485854480
Li  0.0000000000  2.3109585280  0.0000000000
Li  -0.6671162640  1.1554792640  5.4588666000
Li  -1.4614739520  4.8423056720  -2.4485854480
Li  1.3342325280  0.0000000000  5.4588666000
Li  2.0013487920  1.1554792640  0.0000000000
Li  2.7957064800  4.8423056720  0.5616957040
Li  3.4628227440  3.6868264000  2.4485854480
Li  1.4614739520  4.8423056720  2.4485854480
Hf  2.1266233360  3.6834196640  -3.0074995600
Hf  2.6723988240  0.0000000000  1.8896713280
Hf  -1.3361994160  2.3143652720  1.8896713280
Hf  1.3361994160  2.3143652720  -1.8896713280
Hf  4.2532466640  0.0000000000  3.0074995600
Hf  -2.1266233280  3.6834196640  3.0074995600
22
scale = 0.85000
Li  0.0000000000  0.0000000000  3.9024330535
Li  -1.8396245870  3.1863232430  -1.3008110150
Li  3.6792491655  0.0000000000  -1.3008110150
Li  1.8396245870  3.1863232430  1.3008110150
Li  0.7088110305  1.2276967180  2.0048203445
Li  5.9408762700  0.0000000000  -0.5968016855
Li  -2.9704381350  5.1449497765  -0.5968016855
Li  5.2320652395  1.2276967180  -2.6016220385
Li  0.0000000000  2.4553934360  0.0000000000
Li  -0.7088110305  1.2276967180  5.8000457625
Li  -1.5528160740  5.1449497765  -2.6016220385
Li  1.4176220610  0.0000000000  5.8000457625
Li  2.1264330915  1.2276967180  0.0000000000
Li  2.9704381350  5.1449497765  0.5968016855
Li  3.6792491655  3.9172530500  2.6016220385
Li  1.5528160740  5.1449497765  2.6016220385
Hf  2.2595372945  3.9136333930  -3.1954682825
Hf  2.8394237505  0.0000000000  2.0077757860
Hf  -1.4197118795  2.4590131015  2.0077757860
Hf  1.4197118795  2.4590131015  -2.0077757860
Hf  4.5190745805  0.0000000000  3.1954682825
Hf  -2.2595372860  3.9136333930  3.1954682825
22
scale = 0.90000
Li  0.0000000000  0.0000000000  4.1319879390
Li  -1.9478377980  3.3737540220  -1.3773293100
Li  3.8956755870  0.0000000000  -1.3773293100
Li  1.9478377980  3.3737540220  1.3773293100
Li  0.7505057970  1.2999141720  2.1227509530
Li  6.2903395800  0.0000000000  -0.6319076670
Li  -3.1451697900  5.4475938810  -0.6319076670
Li  5.5398337830  1.2999141720  -2.7546586290
Li  0.0000000000  2.5998283440  0.0000000000
Li  -0.7505057970  1.2999141720  6.1412249250
Li  -1.6441581960  5.4475938810  -2.7546586290
Li  1.5010115940  0.0000000000  6.1412249250
Li  2.2515173910  1.2999141720  0.0000000000
Li  3.1451697900  5.4475938810  0.6319076670
Li  3.8956755870  4.1476797000  2.7546586290
Li  1.6441581960  5.4475938810  2.7546586290
Hf  2.3924512530  4.1438471220  -3.3834370050
Hf  3.0064486770  0.0000000000  2.1258802440
Hf  -1.5032243430  2.6036609310  2.1258802440
Hf  1.5032243430  2.6036609310  -2.1258802440
Hf  4.7849024970  0.0000000000  3.3834370050
Hf  -2.3924512440  4.1438471220  3.3834370050
22
scale = 0.95000
Li  0.0000000000  0.0000000000  4.3615428245
Li  -2.0560510090  3.5611848010  -1.4538476050
Li  4.1121020085  0.0000000000  -1.4538476050
Li  2.0560510090  3.5611848010  1.4538476050
Li  0.7922005635  1.3721316260  2.2406815615
Li  6.6398028900  0.0000000000  -0.6670136485
Li  -3.3199014450  5.7502379855  -0.6670136485
Li  5.8476023265  1.3721316260  -2.9076952195
Li  0.0000000000  2.7442632520  0.0000000000
Li  -0.7922005635  1.3721316260  6.4824040875
Li  -1.7355003180  5.7502379855  -2.9076952195
Li  1.5844011270  0.0000000000  6.4824040875
Li  2.3766016905  1.3721316260  0.0000000000
Li  3.3199014450  5.7502379855  0.6670136485
Li  4.1121020085  4.3781063500  2.9076952195
Li  1.7355003180  5.7502379855  2.9076952195
Hf  2.5253652115  4.3740608510  -3.5714057275
Hf  3.1734736035  0.0000000000  2.2439847020
Hf  -1.5867368065  2.7483087605  2.2439847020
Hf  1.5867368065  2.7483087605  -2.2439847020
Hf  5.0507304135  0.0000000000  3.5714057275
Hf  -2.5253652020  4.3740608510  3.5714057275
22
scale = 1.00000
Li  0.0000000000  0.0000000000  4.5910977100
Li  -2.1642642200  3.7486155800  -1.5303659000
Li  4.3285284300  0.0000000000  -1.5303659000
Li  2.1642642200  3.7486155800  1.5303659000
Li  0.8338953300  1.4443490800  2.3586121700
Li  6.9892662000  0.0000000000  -0.7021196300
Li  -3.4946331000  6.0528820900  -0.7021196300
Li  6.1553708700  1.4443490800  -3.0607318100
Li  0.0000000000  2.8886981600  0.0000000000
Li  -0.8338953300  1.4443490800  6.8235832500
Li  -1.8268424400  6.0528820900  -3.0607318100
Li  1.6677906600  0.0000000000  6.8235832500
Li  2.5016859900  1.4443490800  0.0000000000
Li  3.4946331000  6.0528820900  0.7021196300
Li  4.3285284300  4.6085330000  3.0607318100
Li  1.8268424400  6.0528820900  3.0607318100
Hf  2.6582791700  4.6042745800  -3.7593744500
Hf  3.3404985300  0.0000000000  2.3620891600
Hf  -1.6702492700  2.8929565900  2.3620891600
Hf  1.6702492700  2.8929565900  -2.3620891600
Hf  5.3165583300  0.0000000000  3.7593744500
Hf  -2.6582791600  4.6042745800  3.7593744500
22
scale = 1.05000
Li  0.0000000000  0.0000000000  4.8206525955
Li  -2.2724774310  3.9360463590  -1.6068841950
Li  4.5449548515  0.0000000000  -1.6068841950
Li  2.2724774310  3.9360463590  1.6068841950
Li  0.8755900965  1.5165665340  2.4765427785
Li  7.3387295100  0.0000000000  -0.7372256115
Li  -3.6693647550  6.3555261945  -0.7372256115
Li  6.4631394135  1.5165665340  -3.2137684005
Li  0.0000000000  3.0331330680  0.0000000000
Li  -0.8755900965  1.5165665340  7.1647624125
Li  -1.9181845620  6.3555261945  -3.2137684005
Li  1.7511801930  0.0000000000  7.1647624125
Li  2.6267702895  1.5165665340  0.0000000000
Li  3.6693647550  6.3555261945  0.7372256115
Li  4.5449548515  4.8389596500  3.2137684005
Li  1.9181845620  6.3555261945  3.2137684005
Hf  2.7911931285  4.8344883090  -3.9473431725
Hf  3.5075234565  0.0000000000  2.4801936180
Hf  -1.7537617335  3.0376044195  2.4801936180
Hf  1.7537617335  3.0376044195  -2.4801936180
Hf  5.5823862465  0.0000000000  3.9473431725
Hf  -2.7911931180  4.8344883090  3.9473431725
22
scale = 1.10000
Li  0.0000000000  0.0000000000  5.0502074810
Li  -2.3806906420  4.1234771380  -1.6834024900
Li  4.7613812730  0.0000000000  -1.6834024900
Li  2.3806906420  4.1234771380  1.6834024900
Li  0.9172848630  1.5887839880  2.5944733870
Li  7.6881928200  0.0000000000  -0.7723315930
Li  -3.8440964100  6.6581702990  -0.7723315930
Li  6.7709079570  1.5887839880  -3.3668049910
Li  0.0000000000  3.1775679760  0.0000000000
Li  -0.9172848630  1.5887839880  7.5059415750
Li  -2.0095266840  6.6581702990  -3.3668049910
Li  1.8345697260  0.0000000000  7.5059415750
Li  2.7518545890  1.5887839880  0.0000000000
Li  3.8440964100  6.6581702990  0.7723315930
Li  4.7613812730  5.0693863000  3.3668049910
Li  2.0095266840  6.6581702990  3.3668049910
Hf  2.9241070870  5.0647020380  -4.1353118950
Hf  3.6745483830  0.0000000000  2.5982980760
Hf  -1.8372741970  3.1822522490  2.5982980760
Hf  1.8372741970  3.1822522490  -2.5982980760
Hf  5.8482141630  0.0000000000  4.1353118950
Hf  -2.9241070760  5.0647020380  4.1353118950
22
scale = 1.15000
Li  0.0000000000  0.0000000000  5.2797623665
Li  -2.4889038530  4.3109079170  -1.7599207850
Li  4.9778076945  0.0000000000  -1.7599207850
Li  2.4889038530  4.3109079170  1.7599207850
Li  0.9589796295  1.6610014420  2.7124039955
Li  8.0376561300  0.0000000000  -0.8074375745
Li  -4.0188280650  6.9608144035  -0.8074375745
Li  7.0786765005  1.6610014420  -3.5198415815
Li  0.0000000000  3.3220028840  0.0000000000
Li  -0.9589796295  1.6610014420  7.8471207375
Li  -2.1008688060  6.9608144035  -3.5198415815
Li  1.9179592590  0.0000000000  7.8471207375
Li  2.8769388885  1.6610014420  0.0000000000
Li  4.0188280650  6.9608144035  0.8074375745
Li  4.9778076945  5.2998129500  3.5198415815
Li  2.1008688060  6.9608144035  3.5198415815
Hf  3.0570210455  5.2949157670  -4.3232806175
Hf  3.8415733095  0.0000000000  2.7164025340
Hf  -1.9207866605  3.3269000785  2.7164025340
Hf  1.9207866605  3.3269000785  -2.7164025340
Hf  6.1140420795  0.0000000000  4.3232806175
Hf  -3.0570210340  5.2949157670  4.3232806175
22
scale = 1.20000
Li  0.0000000000  0.0000000000  5.5093172520
Li  -2.5971170640  4.4983386960  -1.8364390800
Li  5.1942341160  0.0000000000  -1.8364390800
Li  2.5971170640  4.4983386960  1.8364390800
Li  1.0006743960  1.7332188960  2.8303346040
Li  8.3871194400  0.0000000000  -0.8425435560
Li  -4.1935597200  7.2634585080  -0.8425435560
Li  7.3864450440  1.7332188960  -3.6728781720
Li  0.0000000000  3.4664377920  0.0000000000
Li  -1.0006743960  1.7332188960  8.1882999000
Li  -2.1922109280  7.2634585080  -3.6728781720
Li  2.0013487920  0.0000000000  8.1882999000
Li  3.0020231880  1.7332188960  0.0000000000
Li  4.1935597200  7.2634585080  0.8425435560
Li  5.1942341160  5.5302396000  3.6728781720
Li  2.1922109280  7.2634585080  3.6728781720
Hf  3.1899350040  5.5251294960  -4.5112493400
Hf  4.0085982360  0.0000000000  2.8345069920
Hf  -2.0042991240  3.4715479080  2.8345069920
Hf  2.0042991240  3.4715479080  -2.8345069920
Hf  6.3798699960  0.0000000000  4.5112493400
Hf  -3.1899349920  5.5251294960  4.5112493400
22
scale = 1.25000
Li  0.0000000000  0.0000000000  5.7388721375
Li  -2.7053302750  4.6857694750  -1.9129573750
Li  5.4106605375  0.0000000000  -1.9129573750
Li  2.7053302750  4.6857694750  1.9129573750
Li  1.0423691625  1.8054363500  2.9482652125
Li  8.7365827500  0.0000000000  -0.8776495375
Li  -4.3682913750  7.5661026125  -0.8776495375
Li  7.6942135875  1.8054363500  -3.8259147625
Li  0.0000000000  3.6108727000  0.0000000000
Li  -1.0423691625  1.8054363500  8.5294790625
Li  -2.2835530500  7.5661026125  -3.8259147625
Li  2.0847383250  0.0000000000  8.5294790625
Li  3.1271074875  1.8054363500  0.0000000000
Li  4.3682913750  7.5661026125  0.8776495375
Li  5.4106605375  5.7606662500  3.8259147625
Li  2.2835530500  7.5661026125  3.8259147625
Hf  3.3228489625  5.7553432250  -4.6992180625
Hf  4.1756231625  0.0000000000  2.9526114500
Hf  -2.0878115875  3.6161957375  2.9526114500
Hf  2.0878115875  3.6161957375  -2.9526114500
Hf  6.6456979125  0.0000000000  4.6992180625
Hf  -3.3228489500  5.7553432250  4.6992180625
22
scale = 1.30000
Li  0.0000000000  0.0000000000  5.9684270230
Li  -2.8135434860  4.8732002540  -1.9894756700
Li  5.6270869590  0.0000000000  -1.9894756700
Li  2.8135434860  4.8732002540  1.9894756700
Li  1.0840639290  1.8776538040  3.0661958210
Li  9.0860460600  0.0000000000  -0.9127555190
Li  -4.5430230300  7.8687467170  -0.9127555190
Li  8.0019821310  1.8776538040  -3.9789513530
Li  0.0000000000  3.7553076080  0.0000000000
Li  -1.0840639290  1.8776538040  8.8706582250
Li  -2.3748951720  7.8687467170  -3.9789513530
Li  2.1681278580  0.0000000000  8.8706582250
Li  3.2521917870  1.8776538040  0.0000000000
Li  4.5430230300  7.8687467170  0.9127555190
Li  5.6270869590  5.9910929000  3.9789513530
Li  2.3748951720  7.8687467170  3.9789513530
Hf  3.4557629210  5.9855569540  -4.8871867850
Hf  4.3426480890  0.0000000000  3.0707159080
Hf  -2.1713240510  3.7608435670  3.0707159080
Hf  2.1713240510  3.7608435670  -3.0707159080
Hf  6.9115258290  0.0000000000  4.8871867850
Hf  -3.4557629080  5.9855569540  4.8871867850
22
scale = 1.35000
Li  0.0000000000  0.0000000000  6.1979819085
Li  -2.9217566970  5.0606310330  -2.0659939650
Li  5.8435133805  0.0000000000  -2.0659939650
Li  2.9217566970  5.0606310330  2.0659939650
Li  1.1257586955  1.9498712580  3.1841264295
Li  9.4355093700  0.0000000000  -0.9478615005
Li  -4.7177546850  8.1713908215  -0.9478615005
Li  8.3097506745  1.9498712580  -4.1319879435
Li  0.0000000000  3.8997425160  0.0000000000
Li  -1.1257586955  1.9498712580  9.2118373875
Li  -2.4662372940  8.1713908215  -4.1319879435
Li  2.2515173910  0.0000000000  9.2118373875
Li  3.3772760865  1.9498712580  0.0000000000
Li  4.7177546850  8.1713908215  0.9478615005
Li  5.8435133805  6.2215195500  4.1319879435
Li  2.4662372940  8.1713908215  4.1319879435
Hf  3.5886768795  6.2157706830  -5.0751555075
Hf  4.5096730155  0.0000000000  3.1888203660
Hf  -2.2548365145  3.9054913965  3.1888203660
Hf  2.2548365145  3.9054913965  -3.1888203660
Hf  7.1773537455  0.0000000000  5.0751555075
Hf  -3.5886768660  6.2157706830  5.0751555075
22
scale = 1.40000
Li  0.0000000000  0.0000000000  6.4275367940
Li  -3.0299699080  5.2480618120  -2.1425122600
Li  6.0599398020  0.0000000000  -2.1425122600
Li  3.0299699080  5.2480618120  2.1425122600
Li  1.1674534620  2.0220887120  3.3020570380
Li  9.7849726800  0.0000000000  -0.9829674820
Li  -4.8924863400  8.4740349260  -0.9829674820
Li  8.6175192180  2.0220887120  -4.2850245340
Li  0.0000000000  4.0441774240  0.0000000000
Li  -1.1674534620  2.0220887120  9.5530165500
Li  -2.5575794160  8.4740349260  -4.2850245340
Li  2.3349069240  0.0000000000  9.5530165500
Li  3.5023603860  2.0220887120  0.0000000000
Li  4.8924863400  8.4740349260  0.9829674820
Li  6.0599398020  6.4519462000  4.2850245340
Li  2.5575794160  8.4740349260  4.2850245340
Hf  3.7215908380  6.4459844120  -5.2631242300
Hf  4.6766979420  0.0000000000  3.3069248240
Hf  -2.3383489780  4.0501392260  3.3069248240
Hf  2.3383489780  4.0501392260  -3.3069248240
Hf  7.4431816620  0.0000000000  5.2631242300
Hf  -3.7215908240  6.4459844120  5.2631242300
22
scale = 1.45000
Li  0.0000000000  0.0000000000  6.6570916795
Li  -3.1381831190  5.4354925910  -2.2190305550
Li  6.2763662235  0.0000000000  -2.2190305550
Li  3.1381831190  5.4354925910  2.2190305550
Li  1.2091482285  2.0943061660  3.4199876465
Li  10.1344359900  0.0000000000  -1.0180734635
Li  -5.0672179950  8.7766790305  -1.0180734635
Li  8.9252877615  2.0943061660  -4.4380611245
Li  0.0000000000  4.1886123320  0.0000000000
Li  -1.2091482285  2.0943061660  9.8941957125
Li  -2.6489215380  8.7766790305  -4.4380611245
Li  2.4182964570  0.0000000000  9.8941957125
Li  3.6274446855  2.0943061660  0.0000000000
Li  5.0672179950  8.7766790305  1.0180734635
Li  6.2763662235  6.6823728500  4.4380611245
Li  2.6489215380  8.7766790305  4.4380611245
Hf  3.8545047965  6.6761981410  -5.4510929525
Hf  4.8437228685  0.0000000000  3.4250292820
Hf  -2.4218614415  4.1947870555  3.4250292820
Hf  2.4218614415  4.1947870555  -3.4250292820
Hf  7.7090095785  0.0000000000  5.4510929525
Hf  -3.8545047820  6.6761981410  5.4510929525
22
scale = 1.50000
Li  0.0000000000  0.0000000000  6.8866465650
Li  -3.2463963300  5.6229233700  -2.2955488500
Li  6.4927926450  0.0000000000  -2.2955488500
Li  3.2463963300  5.6229233700  2.2955488500
Li  1.2508429950  2.1665236200  3.5379182550
Li  10.4838993000  0.0000000000  -1.0531794450
Li  -5.2419496500  9.0793231350  -1.0531794450
Li  9.2330563050  2.1665236200  -4.5910977150
Li  0.0000000000  4.3330472400  0.0000000000
Li  -1.2508429950  2.1665236200  10.2353748750
Li  -2.7402636600  9.0793231350  -4.5910977150
Li  2.5016859900  0.0000000000  10.2353748750
Li  3.7525289850  2.1665236200  0.0000000000
Li  5.2419496500  9.0793231350  1.0531794450
Li  6.4927926450  6.9127995000  4.5910977150
Li  2.7402636600  9.0793231350  4.5910977150
Hf  3.9874187550  6.9064118700  -5.6390616750
Hf  5.0107477950  0.0000000000  3.5431337400
Hf  -2.5053739050  4.3394348850  3.5431337400
Hf  2.5053739050  4.3394348850  -3.5431337400
Hf  7.9748374950  0.0000000000  5.6390616750
Hf  -3.9874187400  6.9064118700  5.6390616750
22
scale = 1.55000
Li  0.0000000000  0.0000000000  7.1162014505
Li  -3.3546095410  5.8103541490  -2.3720671450
Li  6.7092190665  0.0000000000  -2.3720671450
Li  3.3546095410  5.8103541490  2.3720671450
Li  1.2925377615  2.2387410740  3.6558488635
Li  10.8333626100  0.0000000000  -1.0882854265
Li  -5.4166813050  9.3819672395  -1.0882854265
Li  9.5408248485  2.2387410740  -4.7441343055
Li  0.0000000000  4.4774821480  0.0000000000
Li  -1.2925377615  2.2387410740  10.5765540375
Li  -2.8316057820  9.3819672395  -4.7441343055
Li  2.5850755230  0.0000000000  10.5765540375
Li  3.8776132845  2.2387410740  0.0000000000
Li  5.4166813050  9.3819672395  1.0882854265
Li  6.7092190665  7.1432261500  4.7441343055
Li  2.8316057820  9.3819672395  4.7441343055
Hf  4.1203327135  7.1366255990  -5.8270303975
Hf  5.1777727215  0.0000000000  3.6612381980
Hf  -2.5888863685  4.4840827145  3.6612381980
Hf  2.5888863685  4.4840827145  -3.6612381980
Hf  8.2406654115  0.0000000000  5.8270303975
Hf  -4.1203326980  7.1366255990  5.8270303975
22
scale = 1.60000
Li  0.0000000000  0.0000000000  7.3457563360
Li  -3.4628227520  5.9977849280  -2.4485854400
Li  6.9256454880  0.0000000000  -2.4485854400
Li  3.4628227520  5.9977849280  2.4485854400
Li  1.3342325280  2.3109585280  3.7737794720
Li  11.1828259200  0.0000000000  -1.1233914080
Li  -5.5914129600  9.6846113440  -1.1233914080
Li  9.8485933920  2.3109585280  -4.8971708960
Li  0.0000000000  4.6219170560  0.0000000000
Li  -1.3342325280  2.3109585280  10.9177332000
Li  -2.9229479040  9.6846113440  -4.8971708960
Li  2.6684650560  0.0000000000  10.9177332000
Li  4.0026975840  2.3109585280  0.0000000000
Li  5.5914129600  9.6846113440  1.1233914080
Li  6.9256454880  7.3736528000  4.8971708960
Li  2.9229479040  9.6846113440  4.8971708960
Hf  4.2532466720  7.3668393280  -6.0149991200
Hf  5.3447976480  0.0000000000  3.7793426560
Hf  -2.6723988320  4.6287305440  3.7793426560
Hf  2.6723988320  4.6287305440  -3.7793426560
Hf  8.5064933280  0.0000000000  6.0149991200
Hf  -4.2532466560  7.3668393280  6.0149991200
22
scale = 1.65000
Li  0.0000000000  0.0000000000  7.5753112215
Li  -3.5710359630  6.1852157070  -2.5251037350
Li  7.1420719095  0.0000000000  -2.5251037350
Li  3.5710359630  6.1852157070  2.5251037350
Li  1.3759272945  2.3831759820  3.8917100805
Li  11.5322892300  0.0000000000  -1.1584973895
Li  -5.7661446150  9.9872554485  -1.1584973895
Li  10.1563619355  2.3831759820  -5.0502074865
Li  0.0000000000  4.7663519640  0.0000000000
Li  -1.3759272945  2.3831759820  11.2589123625
Li  -3.0142900260  9.9872554485  -5.0502074865
Li  2.7518545890  0.0000000000  11.2589123625
Li  4.1277818835  2.3831759820  0.0000000000
Li  5.7661446150  9.9872554485  1.1584973895
Li  7.1420719095  7.6040794500  5.0502074865
Li  3.0142900260  9.9872554485  5.0502074865
Hf  4.3861606305  7.5970530570  -6.2029678425
Hf  5.5118225745  0.0000000000  3.8974471140
Hf  -2.7559112955  4.7733783735  3.8974471140
Hf  2.7559112955  4.7733783735  -3.8974471140
Hf  8.7723212445  0.0000000000  6.2029678425
Hf  -4.3861606140  7.5970530570  6.2029678425
22
scale = 1.70000
Li  0.0000000000  0.0000000000  7.8048661070
Li  -3.6792491740  6.3726464860  -2.6016220300
Li  7.3584983310  0.0000000000  -2.6016220300
Li  3.6792491740  6.3726464860  2.6016220300
Li  1.4176220610  2.4553934360  4.0096406890
Li  11.8817525400  0.0000000000  -1.1936033710
Li  -5.9408762700  10.2898995530  -1.1936033710
Li  10.4641304790  2.4553934360  -5.2032440770
Li  0.0000000000  4.9107868720  0.0000000000
Li  -1.4176220610  2.4553934360  11.6000915250
Li  -3.1056321480  10.2898995530  -5.2032440770
Li  2.8352441220  0.0000000000  11.6000915250
Li  4.2528661830  2.4553934360  0.0000000000
Li  5.9408762700  10.2898995530  1.1936033710
Li  7.3584983310  7.8345061000  5.2032440770
Li  3.1056321480  10.2898995530  5.2032440770
Hf  4.5190745890  7.8272667860  -6.3909365650
Hf  5.6788475010  0.0000000000  4.0155515720
Hf  -2.8394237590  4.9180262030  4.0155515720
Hf  2.8394237590  4.9180262030  -4.0155515720
Hf  9.0381491610  0.0000000000  6.3909365650
Hf  -4.5190745720  7.8272667860  6.3909365650
22
scale = 1.75000
Li  0.0000000000  0.0000000000  8.0344209925
Li  -3.7874623850  6.5600772650  -2.6781403250
Li  7.5749247525  0.0000000000  -2.6781403250
Li  3.7874623850  6.5600772650  2.6781403250
Li  1.4593168275  2.5276108900  4.1275712975
Li  12.2312158500  0.0000000000  -1.2287093525
Li  -6.1156079250  10.5925436575  -1.2287093525
Li  10.7718990225  2.5276108900  -5.3562806675
Li  0.0000000000  5.0552217800  0.0000000000
Li  -1.4593168275  2.5276108900  11.9412706875
Li  -3.1969742700  10.5925436575  -5.3562806675
Li  2.9186336550  0.0000000000  11.9412706875
Li  4.3779504825  2.5276108900  0.0000000000
Li  6.1156079250  10.5925436575  1.2287093525
Li  7.5749247525  8.0649327500  5.3562806675
Li  3.1969742700  10.5925436575  5.3562806675
Hf  4.6519885475  8.0574805150  -6.5789052875
Hf  5.8458724275  0.0000000000  4.1336560300
Hf  -2.9229362225  5.0626740325  4.1336560300
Hf  2.9229362225  5.0626740325  -4.1336560300
Hf  9.3039770775  0.0000000000  6.5789052875
Hf  -4.6519885300  8.0574805150  6.5789052875
22
scale = 1.80000
Li  0.0000000000  0.0000000000  8.2639758780
Li  -3.8956755960  6.7475080440  -2.7546586200
Li  7.7913511740  0.0000000000  -2.7546586200
Li  3.8956755960  6.7475080440  2.7546586200
Li  1.5010115940  2.5998283440  4.2455019060
Li  12.5806791600  0.0000000000  -1.2638153340
Li  -6.2903395800  10.8951877620  -1.2638153340
Li  11.0796675660  2.5998283440  -5.5093172580
Li  0.0000000000  5.1996566880  0.0000000000
Li  -1.5010115940  2.5998283440  12.2824498500
Li  -3.2883163920  10.8951877620  -5.5093172580
Li  3.0020231880  0.0000000000  12.2824498500
Li  4.5030347820  2.5998283440  0.0000000000
Li  6.2903395800  10.8951877620  1.2638153340
Li  7.7913511740  8.2953594000  5.5093172580
Li  3.2883163920  10.8951877620  5.5093172580
Hf  4.7849025060  8.2876942440  -6.7668740100
Hf  6.0128973540  0.0000000000  4.2517604880
Hf  -3.0064486860  5.2073218620  4.2517604880
Hf  3.0064486860  5.2073218620  -4.2517604880
Hf  9.5698049940  0.0000000000  6.7668740100
Hf  -4.7849024880  8.2876942440  6.7668740100
22
scale = 1.85000
Li  0.0000000000  0.0000000000  8.4935307635
Li  -4.0038888070  6.9349388230  -2.8311769150
Li  8.0077775955  0.0000000000  -2.8311769150
Li  4.0038888070  6.9349388230  2.8311769150
Li  1.5427063605  2.6720457980  4.3634325145
Li  12.9301424700  0.0000000000  -1.2989213155
Li  -6.4650712350  11.1978318665  -1.2989213155
Li  11.3874361095  2.6720457980  -5.6623538485
Li  0.0000000000  5.3440915960  0.0000000000
Li  -1.5427063605  2.6720457980  12.6236290125
Li  -3.3796585140  11.1978318665  -5.6623538485
Li  3.0854127210  0.0000000000  12.6236290125
Li  4.6281190815  2.6720457980  0.0000000000
Li  6.4650712350  11.1978318665  1.2989213155
Li  8.0077775955  8.5257860500  5.6623538485
Li  3.3796585140  11.1978318665  5.6623538485
Hf  4.9178164645  8.5179079730  -6.9548427325
Hf  6.1799222805  0.0000000000  4.3698649460
Hf  -3.0899611495  5.3519696915  4.3698649460
Hf  3.0899611495  5.3519696915  -4.3698649460
Hf  9.8356329105  0.0000000000  6.9548427325
Hf  -4.9178164460  8.5179079730  6.9548427325
22
scale = 1.90000
Li  0.0000000000  0.0000000000  8.7230856490
Li  -4.1121020180  7.1223696020  -2.9076952100
Li  8.2242040170  0.0000000000  -2.9076952100
Li  4.1121020180  7.1223696020  2.9076952100
Li  1.5844011270  2.7442632520  4.4813631230
Li  13.2796057800  0.0000000000  -1.3340272970
Li  -6.6398028900  11.5004759710  -1.3340272970
Li  11.6952046530  2.7442632520  -5.8153904390
Li  0.0000000000  5.4885265040  0.0000000000
Li  -1.5844011270  2.7442632520  12.9648081750
Li  -3.4710006360  11.5004759710  -5.8153904390
Li  3.1688022540  0.0000000000  12.9648081750
Li  4.7532033810  2.7442632520  0.0000000000
Li  6.6398028900  11.5004759710  1.3340272970
Li  8.2242040170  8.7562127000  5.8153904390
Li  3.4710006360  11.5004759710  5.8153904390
Hf  5.0507304230  8.7481217020  -7.1428114550
Hf  6.3469472070  0.0000000000  4.4879694040
Hf  -3.1734736130  5.4966175210  4.4879694040
Hf  3.1734736130  5.4966175210  -4.4879694040
Hf  10.1014608270  0.0000000000  7.1428114550
Hf  -5.0507304040  8.7481217020  7.1428114550
22
scale = 1.95000
Li  0.0000000000  0.0000000000  8.9526405345
Li  -4.2203152290  7.3098003810  -2.9842135050
Li  8.4406304385  0.0000000000  -2.9842135050
Li  4.2203152290  7.3098003810  2.9842135050
Li  1.6260958935  2.8164807060  4.5992937315
Li  13.6290690900  0.0000000000  -1.3691332785
Li  -6.8145345450  11.8031200755  -1.3691332785
Li  12.0029731965  2.8164807060  -5.9684270295
Li  0.0000000000  5.6329614120  0.0000000000
Li  -1.6260958935  2.8164807060  13.3059873375
Li  -3.5623427580  11.8031200755  -5.9684270295
Li  3.2521917870  0.0000000000  13.3059873375
Li  4.8782876805  2.8164807060  0.0000000000
Li  6.8145345450  11.8031200755  1.3691332785
Li  8.4406304385  8.9866393500  5.9684270295
Li  3.5623427580  11.8031200755  5.9684270295
Hf  5.1836443815  8.9783354310  -7.3307801775
Hf  6.5139721335  0.0000000000  4.6060738620
Hf  -3.2569860765  5.6412653505  4.6060738620
Hf  3.2569860765  5.6412653505  -4.6060738620
Hf  10.3672887435  0.0000000000  7.3307801775
Hf  -5.1836443620  8.9783354310  7.3307801775
22
scale = 2.00000
Li  0.0000000000  0.0000000000  9.1821954200
Li  -4.3285284400  7.4972311600  -3.0607318000
Li  8.6570568600  0.0000000000  -3.0607318000
Li  4.3285284400  7.4972311600  3.0607318000
Li  1.6677906600  2.8886981600  4.7172243400
Li  13.9785324000  0.0000000000  -1.4042392600
Li  -6.9892662000  12.1057641800  -1.4042392600
Li  12.3107417400  2.8886981600  -6.1214636200
Li  0.0000000000  5.7773963200  0.0000000000
Li  -1.6677906600  2.8886981600  13.6471665000
Li  -3.6536848800  12.1057641800  -6.1214636200
Li  3.3355813200  0.0000000000  13.6471665000
Li  5.0033719800  2.8886981600  0.0000000000
Li  6.9892662000  12.1057641800  1.4042392600
Li  8.6570568600  9.2170660000  6.1214636200
Li  3.6536848800  12.1057641800  6.1214636200
Hf  5.3165583400  9.2085491600  -7.5187489000
Hf  6.6809970600  0.0000000000  4.7241783200
Hf  -3.3404985400  5.7859131800  4.7241783200
Hf  3.3404985400  5.7859131800  -4.7241783200
Hf  10.6331166600  0.0000000000  7.5187489000
Hf  -5.3165583200  9.2085491600  7.5187489000
22
scale = 2.05000
Li  0.0000000000  0.0000000000  9.4117503055
Li  -4.4367416510  7.6846619390  -3.1372500950
Li  8.8734832815  0.0000000000  -3.1372500950
Li  4.4367416510  7.6846619390  3.1372500950
Li  1.7094854265  2.9609156140  4.8351549485
Li  14.3279957100  0.0000000000  -1.4393452415
Li  -7.1639978550  12.4084082845  -1.4393452415
Li  12.6185102835  2.9609156140  -6.2745002105
Li  0.0000000000  5.9218312280  0.0000000000
Li  -1.7094854265  2.9609156140  13.9883456625
Li  -3.7450270020  12.4084082845  -6.2745002105
Li  3.4189708530  0.0000000000  13.9883456625
Li  5.1284562795  2.9609156140  0.0000000000
Li  7.1639978550  12.4084082845  1.4393452415
Li  8.8734832815  9.4474926500  6.2745002105
Li  3.7450270020  12.4084082845  6.2745002105
Hf  5.4494722985  9.4387628890  -7.7067176225
Hf  6.8480219865  0.0000000000  4.8422827780
Hf  -3.4240110035  5.9305610095  4.8422827780
Hf  3.4240110035  5.9305610095  -4.8422827780
Hf  10.8989445765  0.0000000000  7.7067176225
Hf  -5.4494722780  9.4387628890  7.7067176225
22
scale = 2.10000
Li  0.0000000000  0.0000000000  9.6413051910
Li  -4.5449548620  7.8720927180  -3.2137683900
Li  9.0899097030  0.0000000000  -3.2137683900
Li  4.5449548620  7.8720927180  3.2137683900
Li  1.7511801930  3.0331330680  4.9530855570
Li  14.6774590200  0.0000000000  -1.4744512230
Li  -7.3387295100  12.7110523890  -1.4744512230
Li  12.9262788270  3.0331330680  -6.4275368010
Li  0.0000000000  6.0662661360  0.0000000000
Li  -1.7511801930  3.0331330680  14.3295248250
Li  -3.8363691240  12.7110523890  -6.4275368010
Li  3.5023603860  0.0000000000  14.3295248250
Li  5.2535405790  3.0331330680  0.0000000000
Li  7.3387295100  12.7110523890  1.4744512230
Li  9.0899097030  9.6779193000  6.4275368010
Li  3.8363691240  12.7110523890  6.4275368010
Hf  5.5823862570  9.6689766180  -7.8946863450
Hf  7.0150469130  0.0000000000  4.9603872360
Hf  -3.5075234670  6.0752088390  4.9603872360
Hf  3.5075234670  6.0752088390  -4.9603872360
Hf  11.1647724930  0.0000000000  7.8946863450
Hf  -5.5823862360  9.6689766180  7.8946863450
22
scale = 2.15000
Li  0.0000000000  0.0000000000  9.8708600765
Li  -4.6531680730  8.0595234970  -3.2902866850
Li  9.3063361245  0.0000000000  -3.2902866850
Li  4.6531680730  8.0595234970  3.2902866850
Li  1.7928749595  3.1053505220  5.0710161655
Li  15.0269223300  0.0000000000  -1.5095572045
Li  -7.5134611650  13.0136964935  -1.5095572045
Li  13.2340473705  3.1053505220  -6.5805733915
Li  0.0000000000  6.2107010440  0.0000000000
Li  -1.7928749595  3.1053505220  14.6707039875
Li  -3.9277112460  13.0136964935  -6.5805733915
Li  3.5857499190  0.0000000000  14.6707039875
Li  5.3786248785  3.1053505220  0.0000000000
Li  7.5134611650  13.0136964935  1.5095572045
Li  9.3063361245  9.9083459500  6.5805733915
Li  3.9277112460  13.0136964935  6.5805733915
Hf  5.7153002155  9.8991903470  -8.0826550675
Hf  7.1820718395  0.0000000000  5.0784916940
Hf  -3.5910359305  6.2198566685  5.0784916940
Hf  3.5910359305  6.2198566685  -5.0784916940
Hf  11.4306004095  0.0000000000  8.0826550675
Hf  -5.7153001940  9.8991903470  8.0826550675
22
scale = 2.20000
Li  0.0000000000  0.0000000000  10.1004149620
Li  -4.7613812840  8.2469542760  -3.3668049800
Li  9.5227625460  0.0000000000  -3.3668049800
Li  4.7613812840  8.2469542760  3.3668049800
Li  1.8345697260  3.1775679760  5.1889467740
Li  15.3763856400  0.0000000000  -1.5446631860
Li  -7.6881928200  13.3163405980  -1.5446631860
Li  13.5418159140  3.1775679760  -6.7336099820
Li  0.0000000000  6.3551359520  0.0000000000
Li  -1.8345697260  3.1775679760  15.0118831500
Li  -4.0190533680  13.3163405980  -6.7336099820
Li  3.6691394520  0.0000000000  15.0118831500
Li  5.5037091780  3.1775679760  0.0000000000
Li  7.6881928200  13.3163405980  1.5446631860
Li  9.5227625460  10.1387726000  6.7336099820
Li  4.0190533680  13.3163405980  6.7336099820
Hf  5.8482141740  10.1294040760  -8.2706237900
Hf  7.3490967660  0.0000000000  5.1965961520
Hf  -3.6745483940  6.3645044980  5.1965961520
Hf  3.6745483940  6.3645044980  -5.1965961520
Hf  11.6964283260  0.0000000000  8.2706237900
Hf  -5.8482141520  10.1294040760  8.2706237900
22
scale = 2.25000
Li  0.0000000000  0.0000000000  10.3299698475
Li  -4.8695944950  8.4343850550  -3.4433232750
Li  9.7391889675  0.0000000000  -3.4433232750
Li  4.8695944950  8.4343850550  3.4433232750
Li  1.8762644925  3.2497854300  5.3068773825
Li  15.7258489500  0.0000000000  -1.5797691675
Li  -7.8629244750  13.6189847025  -1.5797691675
Li  13.8495844575  3.2497854300  -6.8866465725
Li  0.0000000000  6.4995708600  0.0000000000
Li  -1.8762644925  3.2497854300  15.3530623125
Li  -4.1103954900  13.6189847025  -6.8866465725
Li  3.7525289850  0.0000000000  15.3530623125
Li  5.6287934775  3.2497854300  0.0000000000
Li  7.8629244750  13.6189847025  1.5797691675
Li  9.7391889675  10.3691992500  6.8866465725
Li  4.1103954900  13.6189847025  6.8866465725
Hf  5.9811281325  10.3596178050  -8.4585925125
Hf  7.5161216925  0.0000000000  5.3147006100
Hf  -3.7580608575  6.5091523275  5.3147006100
Hf  3.7580608575  6.5091523275  -5.3147006100
Hf  11.9622562425  0.0000000000  8.4585925125
Hf  -5.9811281100  10.3596178050  8.4585925125
22
scale = 2.30000
Li  0.0000000000  0.0000000000  10.5595247330
Li  -4.9778077060  8.6218158340  -3.5198415700
Li  9.9556153890  0.0000000000  -3.5198415700
Li  4.9778077060  8.6218158340  3.5198415700
Li  1.9179592590  3.3220028840  5.4248079910
Li  16.0753122600  0.0000000000  -1.6148751490
Li  -8.0376561300  13.9216288070  -1.6148751490
Li  14.1573530010  3.3220028840  -7.0396831630
Li  0.0000000000  6.6440057680  0.0000000000
Li  -1.9179592590  3.3220028840  15.6942414750
Li  -4.2017376120  13.9216288070  -7.0396831630
Li  3.8359185180  0.0000000000  15.6942414750
Li  5.7538777770  3.3220028840  0.0000000000
Li  8.0376561300  13.9216288070  1.6148751490
Li  9.9556153890  10.5996259000  7.0396831630
Li  4.2017376120  13.9216288070  7.0396831630
Hf  6.1140420910  10.5898315340  -8.6465612350
Hf  7.6831466190  0.0000000000  5.4328050680
Hf  -3.8415733210  6.6538001570  5.4328050680
Hf  3.8415733210  6.6538001570  -5.4328050680
Hf  12.2280841590  0.0000000000  8.6465612350
Hf  -6.1140420680  10.5898315340  8.6465612350
22
scale = 2.35000
Li  0.0000000000  0.0000000000  10.7890796185
Li  -5.0860209170  8.8092466130  -3.5963598650
Li  10.1720418105  0.0000000000  -3.5963598650
Li  5.0860209170  8.8092466130  3.5963598650
Li  1.9596540255  3.3942203380  5.5427385995
Li  16.4247755700  0.0000000000  -1.6499811305
Li  -8.2123877850  14.2242729115  -1.6499811305
Li  14.4651215445  3.3942203380  -7.1927197535
Li  0.0000000000  6.7884406760  0.0000000000
Li  -1.9596540255  3.3942203380  16.0354206375
Li  -4.2930797340  14.2242729115  -7.1927197535
Li  3.9193080510  0.0000000000  16.0354206375
Li  5.8789620765  3.3942203380  0.0000000000
Li  8.2123877850  14.2242729115  1.6499811305
Li  10.1720418105  10.8300525500  7.1927197535
Li  4.2930797340  14.2242729115  7.1927197535
Hf  6.2469560495  10.8200452630  -8.8345299575
Hf  7.8501715455  0.0000000000  5.5509095260
Hf  -3.9250857845  6.7984479865  5.5509095260
Hf  3.9250857845  6.7984479865  -5.5509095260
Hf  12.4939120755  0.0000000000  8.8345299575
Hf  -6.2469560260  10.8200452630  8.8345299575
22
scale = 2.40000
Li  0.0000000000  0.0000000000  11.0186345040
Li  -5.1942341280  8.9966773920  -3.6728781600
Li  10.3884682320  0.0000000000  -3.6728781600
Li  5.1942341280  8.9966773920  3.6728781600
Li  2.0013487920  3.4664377920  5.6606692080
Li  16.7742388800  0.0000000000  -1.6850871120
Li  -8.3871194400  14.5269170160  -1.6850871120
Li  14.7728900880  3.4664377920  -7.3457563440
Li  0.0000000000  6.9328755840  0.0000000000
Li  -2.0013487920  3.4664377920  16.3765998000
Li  -4.3844218560  14.5269170160  -7.3457563440
Li  4.0026975840  0.0000000000  16.3765998000
Li  6.0040463760  3.4664377920  0.0000000000
Li  8.3871194400  14.5269170160  1.6850871120
Li  10.3884682320  11.0604792000  7.3457563440
Li  4.3844218560  14.5269170160  7.3457563440
Hf  6.3798700080  11.0502589920  -9.0224986800
Hf  8.0171964720  0.0000000000  5.6690139840
Hf  -4.0085982480  6.9430958160  5.6690139840
Hf  4.0085982480  6.9430958160  -5.6690139840
Hf  12.7597399920  0.0000000000  9.0224986800
Hf  -6.3798699840  11.0502589920  9.0224986800
22
scale = 2.45000
Li  0.0000000000  0.0000000000  11.2481893895
Li  -5.3024473390  9.1841081710  -3.7493964550
Li  10.6048946535  0.0000000000  -3.7493964550
Li  5.3024473390  9.1841081710  3.7493964550
Li  2.0430435585  3.5386552460  5.7785998165
Li  17.1237021900  0.0000000000  -1.7201930935
Li  -8.5618510950  14.8295611205  -1.7201930935
Li  15.0806586315  3.5386552460  -7.4987929345
Li  0.0000000000  7.0773104920  0.0000000000
Li  -2.0430435585  3.5386552460  16.7177789625
Li  -4.4757639780  14.8295611205  -7.4987929345
Li  4.0860871170  0.0000000000  16.7177789625
Li  6.1291306755  3.5386552460  0.0000000000
Li  8.5618510950  14.8295611205  1.7201930935
Li  10.6048946535  11.2909058500  7.4987929345
Li  4.4757639780  14.8295611205  7.4987929345
Hf  6.5127839665  11.2804727210  -9.2104674025
Hf  8.1842213985  0.0000000000  5.7871184420
Hf  -4.0921107115  7.0877436455  5.7871184420
Hf  4.0921107115  7.0877436455  -5.7871184420
Hf  13.0255679085  0.0000000000  9.2104674025
Hf  -6.5127839420  11.2804727210  9.2104674025
