11
scale = 0.75000
Li  1.7773140300  2.4466181850  5.4411478725
Li  -0.0000018450  0.5268657975  2.0440268175
Li  1.7773105425  1.9081946325  3.3503043900
Li  0.0000032775  2.1598417725  0.1750919400
Li  1.7773089075  0.8136422100  7.3100827500
Li  -0.0000001875  1.6146903825  6.3341657100
Li  1.7773123725  1.3587936000  1.1510089800
Li  0.0000016425  1.0652893500  4.1348703000
Pb  1.7773125300  0.2787150600  5.2130167725
Pb  -0.0000003450  2.6947689225  2.2721579250
Pb  0.0000000000  0.0000000000  0.0000000000
11
scale = 0.80000
Li  1.8958016320  2.6097260640  5.8038910640
Li  -0.0000019680  0.5619901840  2.1802952720
Li  1.8957979120  2.0354076080  3.5736580160
Li  0.0000034960  2.3038312240  0.1867647360
Li  1.8957961680  0.8678850240  7.7974216000
Li  -0.0000002000  1.7223364080  6.7564434240
Li  1.8957998640  1.4493798400  1.2277429120
Li  0.0000017520  1.1363086400  4.4105283200
Pb  1.8958000320  0.2972960640  5.5605512240
Pb  -0.0000003680  2.8744201840  2.4236351200
Pb  0.0000000000  0.0000000000  0.0000000000
11
scale = 0.85000
Li  2.0142892340  2.7728339430  6.1666342555
Li  -0.0000020910  0.5971145705  2.3165637265
Li  2.0142852815  2.1626205835  3.7970116420
Li  0.0000037145  2.4478206755  0.1984375320
Li  2.0142834285  0.9221278380  8.2847604500
Li  -0.0000002125  1.8299824335  7.1787211380
Li  2.0142873555  1.5399660800  1.3044768440
Li  0.0000018615  1.2073279300  4.6861863400
Pb  2.0142875340  0.3158770680  5.9080856755
Pb  -0.0000003910  3.0540714455  2.5751123150
Pb  0.0000000000  0.0000000000  0.0000000000
11
scale = 0.90000
Li  2.1327768360  2.9359418220  6.5293774470
Li  -0.0000022140  0.6322389570  2.4528321810
Li  2.1327726510  2.2898335590  4.0203652680
Li  0.0000039330  2.5918101270  0.2101103280
Li  2.1327706890  0.9763706520  8.7720993000
Li  -0.0000002250  1.9376284590  7.6009988520
Li  2.1327748470  1.6305523200  1.3812107760
Li  0.0000019710  1.2783472200  4.9618443600
Pb  2.1327750360  0.3344580720  6.2556201270
Pb  -0.0000004140  3.2337227070  2.7265895100
Pb  0.0000000000  0.0000000000  0.0000000000
11
scale = 0.95000
Li  2.2512644380  3.0990497010  6.8921206385
Li  -0.0000023370  0.6673633435  2.5891006355
Li  2.2512600205  2.4170465345  4.2437188940
Li  0.0000041515  2.7357995785  0.2217831240
Li  2.2512579495  1.0306134660  9.2594381500
Li  -0.0000002375  2.0452744845  8.0232765660
Li  2.2512623385  1.7211385600  1.4579447080
Li  0.0000020805  1.3493665100  5.2375023800
Pb  2.2512625380  0.3530390760  6.6031545785
Pb  -0.0000004370  3.4133739685  2.8780667050
Pb  0.0000000000  0.0000000000  0.0000000000
11
scale = 1.00000
Li  2.3697520400  3.2621575800  7.2548638300
Li  -0.0000024600  0.7024877300  2.7253690900
Li  2.3697473900  2.5442595100  4.4670725200
Li  0.0000043700  2.8797890300  0.2334559200
Li  2.3697452100  1.0848562800  9.7467770000
Li  -0.0000002500  2.1529205100  8.4455542800
Li  2.3697498300  1.8117248000  1.5346786400
Li  0.0000021900  1.4203858000  5.5131604000
Pb  2.3697500400  0.3716200800  6.9506890300
Pb  -0.0000004600  3.5930252300  3.0295439000
Pb  0.0000000000  0.0000000000  0.0000000000
11
scale = 1.05000
Li  2.4882396420  3.4252654590  7.6176070215
Li  -0.0000025830  0.7376121165  2.8616375445
Li  2.4882347595  2.6714724855  4.6904261460
Li  0.0000045885  3.0237784815  0.2451287160
Li  2.4882324705  1.1390990940  10.2341158500
Li  -0.0000002625  2.2605665355  8.8678319940
Li  2.4882373215  1.9023110400  1.6114125720
Li  0.0000022995  1.4914050900  5.7888184200
Pb  2.4882375420  0.3902010840  7.2982234815
Pb  -0.0000004830  3.7726764915  3.1810210950
Pb  0.0000000000  0.0000000000  0.0000000000
11
scale = 1.10000
Li  2.6067272440  3.5883733380  7.9803502130
Li  -0.0000027060  0.7727365030  2.9979059990
Li  2.6067221290  2.7986854610  4.9137797720
Li  0.0000048070  3.1677679330  0.2568015120
Li  2.6067197310  1.1933419080  10.7214547000
Li  -0.0000002750  2.3682125610  9.2901097080
Li  2.6067248130  1.9928972800  1.6881465040
Li  0.0000024090  1.5624243800  6.0644764400
Pb  2.6067250440  0.4087820880  7.6457579330
Pb  -0.0000005060  3.9523277530  3.3324982900
Pb  0.0000000000  0.0000000000  0.0000000000
11
scale = 1.15000
Li  2.7252148460  3.7514812170  8.3430934045
Li  -0.0000028290  0.8078608895  3.1341744535
Li  2.7252094985  2.9258984365  5.1371333980
Li  0.0000050255  3.3117573845  0.2684743080
Li  2.7252069915  1.2475847220  11.2087935500
Li  -0.0000002875  2.4758585865  9.7123874220
Li  2.7252123045  2.0834835200  1.7648804360
Li  0.0000025185  1.6334436700  6.3401344600
Pb  2.7252125460  0.4273630920  7.9932923845
Pb  -0.0000005290  4.1319790145  3.4839754850
Pb  0.0000000000  0.0000000000  0.0000000000
11
scale = 1.20000
Li  2.8437024480  3.9145890960  8.7058365960
Li  -0.0000029520  0.8429852760  3.2704429080
Li  2.8436968680  3.0531114120  5.3604870240
Li  0.0000052440  3.4557468360  0.2801471040
Li  2.8436942520  1.3018275360  11.6961324000
Li  -0.0000003000  2.5835046120  10.1346651360
Li  2.8436997960  2.1740697600  1.8416143680
Li  0.0000026280  1.7044629600  6.6157924800
Pb  2.8437000480  0.4459440960  8.3408268360
Pb  -0.0000005520  4.3116302760  3.6354526800
Pb  0.0000000000  0.0000000000  0.0000000000
11
scale = 1.25000
Li  2.9621900500  4.0776969750  9.0685797875
Li  -0.0000030750  0.8781096625  3.4067113625
Li  2.9621842375  3.1803243875  5.5838406500
Li  0.0000054625  3.5997362875  0.2918199000
Li  2.9621815125  1.3560703500  12.1834712500
Li  -0.0000003125  2.6911506375  10.5569428500
Li  2.9621872875  2.2646560000  1.9183483000
Li  0.0000027375  1.7754822500  6.8914505000
Pb  2.9621875500  0.4645251000  8.6883612875
Pb  -0.0000005750  4.4912815375  3.7869298750
Pb  0.0000000000  0.0000000000  0.0000000000
11
scale = 1.30000
Li  3.0806776520  4.2408048540  9.4313229790
Li  -0.0000031980  0.9132340490  3.5429798170
Li  3.0806716070  3.3075373630  5.8071942760
Li  0.0000056810  3.7437257390  0.3034926960
Li  3.0806687730  1.4103131640  12.6708101000
Li  -0.0000003250  2.7987966630  10.9792205640
Li  3.0806747790  2.3552422400  1.9950822320
Li  0.0000028470  1.8465015400  7.1671085200
Pb  3.0806750520  0.4831061040  9.0358957390
Pb  -0.0000005980  4.6709327990  3.9384070700
Pb  0.0000000000  0.0000000000  0.0000000000
11
scale = 1.35000
Li  3.1991652540  4.4039127330  9.7940661705
Li  -0.0000033210  0.9483584355  3.6792482715
Li  3.1991589765  3.4347503385  6.0305479020
Li  0.0000058995  3.8877151905  0.3151654920
Li  3.1991560335  1.4645559780  13.1581489500
Li  -0.0000003375  2.9064426885  11.4014982780
Li  3.1991622705  2.4458284800  2.0718161640
Li  0.0000029565  1.9175208300  7.4427665400
Pb  3.1991625540  0.5016871080  9.3834301905
Pb  -0.0000006210  4.8505840605  4.0898842650
Pb  0.0000000000  0.0000000000  0.0000000000
11
scale = 1.40000
Li  3.3176528560  4.5670206120  10.1568093620
Li  -0.0000034440  0.9834828220  3.8155167260
Li  3.3176463460  3.5619633140  6.2539015280
Li  0.0000061180  4.0317046420  0.3268382880
Li  3.3176432940  1.5187987920  13.6454878000
Li  -0.0000003500  3.0140887140  11.8237759920
Li  3.3176497620  2.5364147200  2.1485500960
Li  0.0000030660  1.9885401200  7.7184245600
Pb  3.3176500560  0.5202681120  9.7309646420
Pb  -0.0000006440  5.0302353220  4.2413614600
Pb  0.0000000000  0.0000000000  0.0000000000
11
scale = 1.45000
Li  3.4361404580  4.7301284910  10.5195525535
Li  -0.0000035670  1.0186072085  3.9517851805
Li  3.4361337155  3.6891762895  6.4772551540
Li  0.0000063365  4.1756940935  0.3385110840
Li  3.4361305545  1.5730416060  14.1328266500
Li  -0.0000003625  3.1217347395  12.2460537060
Li  3.4361372535  2.6270009600  2.2252840280
Li  0.0000031755  2.0595594100  7.9940825800
Pb  3.4361375580  0.5388491160  10.0784990935
Pb  -0.0000006670  5.2098865835  4.3928386550
Pb  0.0000000000  0.0000000000  0.0000000000
11
scale = 1.50000
Li  3.5546280600  4.8932363700  10.8822957450
Li  -0.0000036900  1.0537315950  4.0880536350
Li  3.5546210850  3.8163892650  6.7006087800
Li  0.0000065550  4.3196835450  0.3501838800
Li  3.5546178150  1.6272844200  14.6201655000
Li  -0.0000003750  3.2293807650  12.6683314200
Li  3.5546247450  2.7175872000  2.3020179600
Li  0.0000032850  2.1305787000  8.2697406000
Pb  3.5546250600  0.5574301200  10.4260335450
Pb  -0.0000006900  5.3895378450  4.5443158500
Pb  0.0000000000  0.0000000000  0.0000000000
11
scale = 1.55000
Li  3.6731156620  5.0563442490  11.2450389365
Li  -0.0000038130  1.0888559815  4.2243220895
Li  3.6731084545  3.9436022405  6.9239624060
Li  0.0000067735  4.4636729965  0.3618566760
Li  3.6731050755  1.6815272340  15.1075043500
Li  -0.0000003875  3.3370267905  13.0906091340
Li  3.6731122365  2.8081734400  2.3787518920
Li  0.0000033945  2.2015979900  8.5453986200
Pb  3.6731125620  0.5760111240  10.7735679965
Pb  -0.0000007130  5.5691891065  4.6957930450
Pb  0.0000000000  0.0000000000  0.0000000000
11
scale = 1.60000
Li  3.7916032640  5.2194521280  11.6077821280
Li  -0.0000039360  1.1239803680  4.3605905440
Li  3.7915958240  4.0708152160  7.1473160320
Li  0.0000069920  4.6076624480  0.3735294720
Li  3.7915923360  1.7357700480  15.5948432000
Li  -0.0000004000  3.4446728160  13.5128868480
Li  3.7915997280  2.8987596800  2.4554858240
Li  0.0000035040  2.2726172800  8.8210566400
Pb  3.7916000640  0.5945921280  11.1211024480
Pb  -0.0000007360  5.7488403680  4.8472702400
Pb  0.0000000000  0.0000000000  0.0000000000
11
scale = 1.65000
Li  3.9100908660  5.3825600070  11.9705253195
Li  -0.0000040590  1.1591047545  4.4968589985
Li  3.9100831935  4.1980281915  7.3706696580
Li  0.0000072105  4.7516518995  0.3852022680
Li  3.9100795965  1.7900128620  16.0821820500
Li  -0.0000004125  3.5523188415  13.9351645620
Li  3.9100872195  2.9893459200  2.5322197560
Li  0.0000036135  2.3436365700  9.0967146600
Pb  3.9100875660  0.6131731320  11.4686368995
Pb  -0.0000007590  5.9284916295  4.9987474350
Pb  0.0000000000  0.0000000000  0.0000000000
11
scale = 1.70000
Li  4.0285784680  5.5456678860  12.3332685110
Li  -0.0000041820  1.1942291410  4.6331274530
Li  4.0285705630  4.3252411670  7.5940232840
Li  0.0000074290  4.8956413510  0.3968750640
Li  4.0285668570  1.8442556760  16.5695209000
Li  -0.0000004250  3.6599648670  14.3574422760
Li  4.0285747110  3.0799321600  2.6089536880
Li  0.0000037230  2.4146558600  9.3723726800
Pb  4.0285750680  0.6317541360  11.8161713510
Pb  -0.0000007820  6.1081428910  5.1502246300
Pb  0.0000000000  0.0000000000  0.0000000000
11
scale = 1.75000
Li  4.1470660700  5.7087757650  12.6960117025
Li  -0.0000043050  1.2293535275  4.7693959075
Li  4.1470579325  4.4524541425  7.8173769100
Li  0.0000076475  5.0396308025  0.4085478600
Li  4.1470541175  1.8984984900  17.0568597500
Li  -0.0000004375  3.7676108925  14.7797199900
Li  4.1470622025  3.1705184000  2.6856876200
Li  0.0000038325  2.4856751500  9.6480307000
Pb  4.1470625700  0.6503351400  12.1637058025
Pb  -0.0000008050  6.2877941525  5.3017018250
Pb  0.0000000000  0.0000000000  0.0000000000
11
scale = 1.80000
Li  4.2655536720  5.8718836440  13.0587548940
Li  -0.0000044280  1.2644779140  4.9056643620
Li  4.2655453020  4.5796671180  8.0407305360
Li  0.0000078660  5.1836202540  0.4202206560
Li  4.2655413780  1.9527413040  17.5441986000
Li  -0.0000004500  3.8752569180  15.2019977040
Li  4.2655496940  3.2611046400  2.7624215520
Li  0.0000039420  2.5566944400  9.9236887200
Pb  4.2655500720  0.6689161440  12.5112402540
Pb  -0.0000008280  6.4674454140  5.4531790200
Pb  0.0000000000  0.0000000000  0.0000000000
11
scale = 1.85000
Li  4.3840412740  6.0349915230  13.4214980855
Li  -0.0000045510  1.2996023005  5.0419328165
Li  4.3840326715  4.7068800935  8.2640841620
Li  0.0000080845  5.3276097055  0.4318934520
Li  4.3840286385  2.0069841180  18.0315374500
Li  -0.0000004625  3.9829029435  15.6242754180
Li  4.3840371855  3.3516908800  2.8391554840
Li  0.0000040515  2.6277137300  10.1993467400
Pb  4.3840375740  0.6874971480  12.8587747055
Pb  -0.0000008510  6.6470966755  5.6046562150
Pb  0.0000000000  0.0000000000  0.0000000000
11
scale = 1.90000
Li  4.5025288760  6.1980994020  13.7842412770
Li  -0.0000046740  1.3347266870  5.1782012710
Li  4.5025200410  4.8340930690  8.4874377880
Li  0.0000083030  5.4715991570  0.4435662480
Li  4.5025158990  2.0612269320  18.5188763000
Li  -0.0000004750  4.0905489690  16.0465531320
Li  4.5025246770  3.4422771200  2.9158894160
Li  0.0000041610  2.6987330200  10.4750047600
Pb  4.5025250760  0.7060781520  13.2063091570
Pb  -0.0000008740  6.8267479370  5.7561334100
Pb  0.0000000000  0.0000000000  0.0000000000
11
scale = 1.95000
Li  4.6210164780  6.3612072810  14.1469844685
Li  -0.0000047970  1.3698510735  5.3144697255
Li  4.6210074105  4.9613060445  8.7107914140
Li  0.0000085215  5.6155886085  0.4552390440
Li  4.6210031595  2.1154697460  19.0062151500
Li  -0.0000004875  4.1981949945  16.4688308460
Li  4.6210121685  3.5328633600  2.9926233480
Li  0.0000042705  2.7697523100  10.7506627800
Pb  4.6210125780  0.7246591560  13.5538436085
Pb  -0.0000008970  7.0063991985  5.9076106050
Pb  0.0000000000  0.0000000000  0.0000000000
11
scale = 2.00000
Li  4.7395040800  6.5243151600  14.5097276600
Li  -0.0000049200  1.4049754600  5.4507381800
Li  4.7394947800  5.0885190200  8.9341450400
Li  0.0000087400  5.7595780600  0.4669118400
Li  4.7394904200  2.1697125600  19.4935540000
Li  -0.0000005000  4.3058410200  16.8911085600
Li  4.7394996600  3.6234496000  3.0693572800
Li  0.0000043800  2.8407716000  11.0263208000
Pb  4.7395000800  0.7432401600  13.9013780600
Pb  -0.0000009200  7.1860504600  6.0590878000
Pb  0.0000000000  0.0000000000  0.0000000000
11
scale = 2.05000
Li  4.8579916820  6.6874230390  14.8724708515
Li  -0.0000050430  1.4400998465  5.5870066345
Li  4.8579821495  5.2157319955  9.1574986660
Li  0.0000089585  5.9035675115  0.4785846360
Li  4.8579776805  2.2239553740  19.9808928500
Li  -0.0000005125  4.4134870455  17.3133862740
Li  4.8579871515  3.7140358400  3.1460912120
Li  0.0000044895  2.9117908900  11.3019788200
Pb  4.8579875820  0.7618211640  14.2489125115
Pb  -0.0000009430  7.3657017215  6.2105649950
Pb  0.0000000000  0.0000000000  0.0000000000
11
scale = 2.10000
Li  4.9764792840  6.8505309180  15.2352140430
Li  -0.0000051660  1.4752242330  5.7232750890
Li  4.9764695190  5.3429449710  9.3808522920
Li  0.0000091770  6.0475569630  0.4902574320
Li  4.9764649410  2.2781981880  20.4682317000
Li  -0.0000005250  4.5211330710  17.7356639880
Li  4.9764746430  3.8046220800  3.2228251440
Li  0.0000045990  2.9828101800  11.5776368400
Pb  4.9764750840  0.7804021680  14.5964469630
Pb  -0.0000009660  7.5453529830  6.3620421900
Pb  0.0000000000  0.0000000000  0.0000000000
11
scale = 2.15000
Li  5.0949668860  7.0136387970  15.5979572345
Li  -0.0000052890  1.5103486195  5.8595435435
Li  5.0949568885  5.4701579465  9.6042059180
Li  0.0000093955  6.1915464145  0.5019302280
Li  5.0949522015  2.3324410020  20.9555705500
Li  -0.0000005375  4.6287790965  18.1579417020
Li  5.0949621345  3.8952083200  3.2995590760
Li  0.0000047085  3.0538294700  11.8532948600
Pb  5.0949625860  0.7989831720  14.9439814145
Pb  -0.0000009890  7.7250042445  6.5135193850
Pb  0.0000000000  0.0000000000  0.0000000000
11
scale = 2.20000
Li  5.2134544880  7.1767466760  15.9607004260
Li  -0.0000054120  1.5454730060  5.9958119980
Li  5.2134442580  5.5973709220  9.8275595440
Li  0.0000096140  6.3355358660  0.5136030240
Li  5.2134394620  2.3866838160  21.4429094000
Li  -0.0000005500  4.7364251220  18.5802194160
Li  5.2134496260  3.9857945600  3.3762930080
Li  0.0000048180  3.1248487600  12.1289528800
Pb  5.2134500880  0.8175641760  15.2915158660
Pb  -0.0000010120  7.9046555060  6.6649965800
Pb  0.0000000000  0.0000000000  0.0000000000
11
scale = 2.25000
Li  5.3319420900  7.3398545550  16.3234436175
Li  -0.0000055350  1.5805973925  6.1320804525
Li  5.3319316275  5.7245838975  10.0509131700
Li  0.0000098325  6.4795253175  0.5252758200
Li  5.3319267225  2.4409266300  21.9302482500
Li  -0.0000005625  4.8440711475  19.0024971300
Li  5.3319371175  4.0763808000  3.4530269400
Li  0.0000049275  3.1958680500  12.4046109000
Pb  5.3319375900  0.8361451800  15.6390503175
Pb  -0.0000010350  8.0843067675  6.8164737750
Pb  0.0000000000  0.0000000000  0.0000000000
11
scale = 2.30000
Li  5.4504296920  7.5029624340  16.6861868090
Li  -0.0000056580  1.6157217790  6.2683489070
Li  5.4504189970  5.8517968730  10.2742667960
Li  0.0000100510  6.6235147690  0.5369486160
Li  5.4504139830  2.4951694440  22.4175871000
Li  -0.0000005750  4.9517171730  19.4247748440
Li  5.4504246090  4.1669670400  3.5297608720
Li  0.0000050370  3.2668873400  12.6802689200
Pb  5.4504250920  0.8547261840  15.9865847690
Pb  -0.0000010580  8.2639580290  6.9679509700
Pb  0.0000000000  0.0000000000  0.0000000000
11
scale = 2.35000
Li  5.5689172940  7.6660703130  17.0489300005
Li  -0.0000057810  1.6508461655  6.4046173615
Li  5.5689063665  5.9790098485  10.4976204220
Li  0.0000102695  6.7675042205  0.5486214120
Li  5.5689012435  2.5494122580  22.9049259500
Li  -0.0000005875  5.0593631985  19.8470525580
Li  5.5689121005  4.2575532800  3.6064948040
Li  0.0000051465  3.3379066300  12.9559269400
Pb  5.5689125940  0.8733071880  16.3341192205
Pb  -0.0000010810  8.4436092905  7.1194281650
Pb  0.0000000000  0.0000000000  0.0000000000
11
scale = 2.40000
Li  5.6874048960  7.8291781920  17.4116731920
Li  -0.0000059040  1.6859705520  6.5408858160
Li  5.6873937360  6.1062228240  10.7209740480
Li  0.0000104880  6.9114936720  0.5602942080
Li  5.6873885040  2.6036550720  23.3922648000
Li  -0.0000006000  5.1670092240  20.2693302720
Li  5.6873995920  4.3481395200  3.6832287360
Li  0.0000052560  3.4089259200  13.2315849600
Pb  5.6874000960  0.8918881920  16.6816536720
Pb  -0.0000011040  8.6232605520  7.2709053600
Pb  0.0000000000  0.0000000000  0.0000000000
11
scale = 2.45000
Li  5.8058924980  7.9922860710  17.7744163835
Li  -0.0000060270  1.7210949385  6.6771542705
Li  5.8058811055  6.2334357995  10.9443276740
Li  0.0000107065  7.0554831235  0.5719670040
Li  5.8058757645  2.6578978860  23.8796036500
Li  -0.0000006125  5.2746552495  20.6916079860
Li  5.8058870835  4.4387257600  3.7599626680
Li  0.0000053655  3.4799452100  13.5072429800
Pb  5.8058875980  0.9104691960  17.0291881235
Pb  -0.0000011270  8.8029118135  7.4223825550
Pb  0.0000000000  0.0000000000  0.0000000000
