13
scale = 0.75000
Li  0.5399986050  3.2600892975  2.2841766975
Li  0.8825480250  1.8397037550  3.6930039975
Li  2.1143221950  2.0347516650  1.6860190950
Li  1.6826651775  1.2583476450  -0.1248948525
Li  2.4568716150  0.6143661225  3.0948463950
Li  1.3142050350  2.6161077750  5.5039179450
Li  0.0000000000  0.0000000000  0.0000000000
Li  2.8796984025  1.3912420500  4.8951618600
Li  0.1171718100  2.4832133700  0.4838612325
Al  1.7606964375  3.6230068275  0.1967130150
Al  1.2361737750  0.2514485925  5.1823100775
Al  0.4330689375  0.8315688675  1.8251068725
Al  2.5638012750  3.0428865525  3.5539162200
13
scale = 0.80000
Li  0.5759985120  3.4774285840  2.4364551440
Li  0.9413845600  1.9623506720  3.9392042640
Li  2.2552770080  2.1704017760  1.7984203680
Li  1.7948428560  1.3422374880  -0.1332211760
Li  2.6206630560  0.6553238640  3.3011694880
Li  1.4018187040  2.7905149600  5.8708458080
Li  0.0000000000  0.0000000000  0.0000000000
Li  3.0716782960  1.4839915200  5.2215059840
Li  0.1249832640  2.6487609280  0.5161186480
Al  1.8780762000  3.8645406160  0.2098272160
Al  1.3185853600  0.2682118320  5.5277974160
Al  0.4619402000  0.8870067920  1.9467806640
Al  2.7347213600  3.2457456560  3.7908439680
13
scale = 0.85000
Li  0.6119984190  3.6947678705  2.5887335905
Li  1.0002210950  2.0849975890  4.1854045305
Li  2.3962318210  2.3060518870  1.9108216410
Li  1.9070205345  1.4261273310  -0.1415474995
Li  2.7844544970  0.6962816055  3.5074925810
Li  1.4894323730  2.9649221450  6.2377736710
Li  0.0000000000  0.0000000000  0.0000000000
Li  3.2636581895  1.5767409900  5.5478501080
Li  0.1327947180  2.8143084860  0.5483760635
Al  1.9954559625  4.1060744045  0.2229414170
Al  1.4009969450  0.2849750715  5.8732847545
Al  0.4908114625  0.9424447165  2.0684544555
Al  2.9056414450  3.4486047595  4.0277717160
13
scale = 0.90000
Li  0.6479983260  3.9121071570  2.7410120370
Li  1.0590576300  2.2076445060  4.4316047970
Li  2.5371866340  2.4417019980  2.0232229140
Li  2.0191982130  1.5100171740  -0.1498738230
Li  2.9482459380  0.7372393470  3.7138156740
Li  1.5770460420  3.1393293300  6.6047015340
Li  0.0000000000  0.0000000000  0.0000000000
Li  3.4556380830  1.6694904600  5.8741942320
Li  0.1406061720  2.9798560440  0.5806334790
Al  2.1128357250  4.3476081930  0.2360556180
Al  1.4834085300  0.3017383110  6.2187720930
Al  0.5196827250  0.9978826410  2.1901282470
Al  3.0765615300  3.6514638630  4.2646994640
13
scale = 0.95000
Li  0.6839982330  4.1294464435  2.8932904835
Li  1.1178941650  2.3302914230  4.6778050635
Li  2.6781414470  2.5773521090  2.1356241870
Li  2.1313758915  1.5939070170  -0.1582001465
Li  3.1120373790  0.7781970885  3.9201387670
Li  1.6646597110  3.3137365150  6.9716293970
Li  0.0000000000  0.0000000000  0.0000000000
Li  3.6476179765  1.7622399300  6.2005383560
Li  0.1484176260  3.1454036020  0.6128908945
Al  2.2302154875  4.5891419815  0.2491698190
Al  1.5658201150  0.3185015505  6.5642594315
Al  0.5485539875  1.0533205655  2.3118020385
Al  3.2474816150  3.8543229665  4.5016272120
13
scale = 1.00000
Li  0.7199981400  4.3467857300  3.0455689300
Li  1.1767307000  2.4529383400  4.9240053300
Li  2.8190962600  2.7130022200  2.2480254600
Li  2.2435535700  1.6777968600  -0.1665264700
Li  3.2758288200  0.8191548300  4.1264618600
Li  1.7522733800  3.4881437000  7.3385572600
Li  0.0000000000  0.0000000000  0.0000000000
Li  3.8395978700  1.8549894000  6.5268824800
Li  0.1562290800  3.3109511600  0.6451483100
Al  2.3475952500  4.8306757700  0.2622840200
Al  1.6482317000  0.3352647900  6.9097467700
Al  0.5774252500  1.1087584900  2.4334758300
Al  3.4184017000  4.0571820700  4.7385549600
13
scale = 1.05000
Li  0.7559980470  4.5641250165  3.1978473765
Li  1.2355672350  2.5755852570  5.1702055965
Li  2.9600510730  2.8486523310  2.3604267330
Li  2.3557312485  1.7616867030  -0.1748527935
Li  3.4396202610  0.8601125715  4.3327849530
Li  1.8398870490  3.6625508850  7.7054851230
Li  0.0000000000  0.0000000000  0.0000000000
Li  4.0315777635  1.9477388700  6.8532266040
Li  0.1640405340  3.4764987180  0.6774057255
Al  2.4649750125  5.0722095585  0.2753982210
Al  1.7306432850  0.3520280295  7.2552341085
Al  0.6062965125  1.1641964145  2.5551496215
Al  3.5893217850  4.2600411735  4.9754827080
13
scale = 1.10000
Li  0.7919979540  4.7814643030  3.3501258230
Li  1.2944037700  2.6982321740  5.4164058630
Li  3.1010058860  2.9843024420  2.4728280060
Li  2.4679089270  1.8455765460  -0.1831791170
Li  3.6034117020  0.9010703130  4.5391080460
Li  1.9275007180  3.8369580700  8.0724129860
Li  0.0000000000  0.0000000000  0.0000000000
Li  4.2235576570  2.0404883400  7.1795707280
Li  0.1718519880  3.6420462760  0.7096631410
Al  2.5823547750  5.3137433470  0.2885124220
Al  1.8130548700  0.3687912690  7.6007214470
Al  0.6351677750  1.2196343390  2.6768234130
Al  3.7602418700  4.4629002770  5.2124104560
13
scale = 1.15000
Li  0.8279978610  4.9988035895  3.5024042695
Li  1.3532403050  2.8208790910  5.6626061295
Li  3.2419606990  3.1199525530  2.5852292790
Li  2.5800866055  1.9294663890  -0.1915054405
Li  3.7672031430  0.9420280545  4.7454311390
Li  2.0151143870  4.0113652550  8.4393408490
Li  0.0000000000  0.0000000000  0.0000000000
Li  4.4155375505  2.1332378100  7.5059148520
Li  0.1796634420  3.8075938340  0.7419205565
Al  2.6997345375  5.5552771355  0.3016266230
Al  1.8954664550  0.3855545085  7.9462087855
Al  0.6640390375  1.2750722635  2.7984972045
Al  3.9311619550  4.6657593805  5.4493382040
13
scale = 1.20000
Li  0.8639977680  5.2161428760  3.6546827160
Li  1.4120768400  2.9435260080  5.9088063960
Li  3.3829155120  3.2556026640  2.6976305520
Li  2.6922642840  2.0133562320  -0.1998317640
Li  3.9309945840  0.9829857960  4.9517542320
Li  2.1027280560  4.1857724400  8.8062687120
Li  0.0000000000  0.0000000000  0.0000000000
Li  4.6075174440  2.2259872800  7.8322589760
Li  0.1874748960  3.9731413920  0.7741779720
Al  2.8171143000  5.7968109240  0.3147408240
Al  1.9778780400  0.4023177480  8.2916961240
Al  0.6929103000  1.3305101880  2.9201709960
Al  4.1020820400  4.8686184840  5.6862659520
13
scale = 1.25000
Li  0.8999976750  5.4334821625  3.8069611625
Li  1.4709133750  3.0661729250  6.1550066625
Li  3.5238703250  3.3912527750  2.8100318250
Li  2.8044419625  2.0972460750  -0.2081580875
Li  4.0947860250  1.0239435375  5.1580773250
Li  2.1903417250  4.3601796250  9.1731965750
Li  0.0000000000  0.0000000000  0.0000000000
Li  4.7994973375  2.3187367500  8.1586031000
Li  0.1952863500  4.1386889500  0.8064353875
Al  2.9344940625  6.0383447125  0.3278550250
Al  2.0602896250  0.4190809875  8.6371834625
Al  0.7217815625  1.3859481125  3.0418447875
Al  4.2730021250  5.0714775875  5.9231937000
13
scale = 1.30000
Li  0.9359975820  5.6508214490  3.9592396090
Li  1.5297499100  3.1888198420  6.4012069290
Li  3.6648251380  3.5269028860  2.9224330980
Li  2.9166196410  2.1811359180  -0.2164844110
Li  4.2585774660  1.0649012790  5.3644004180
Li  2.2779553940  4.5345868100  9.5401244380
Li  0.0000000000  0.0000000000  0.0000000000
Li  4.9914772310  2.4114862200  8.4849472240
Li  0.2030978040  4.3042365080  0.8386928030
Al  3.0518738250  6.2798785010  0.3409692260
Al  2.1427012100  0.4358442270  8.9826708010
Al  0.7506528250  1.4413860370  3.1635185790
Al  4.4439222100  5.2743366910  6.1601214480
13
scale = 1.35000
Li  0.9719974890  5.8681607355  4.1115180555
Li  1.5885864450  3.3114667590  6.6474071955
Li  3.8057799510  3.6625529970  3.0348343710
Li  3.0287973195  2.2650257610  -0.2248107345
Li  4.4223689070  1.1058590205  5.5707235110
Li  2.3655690630  4.7089939950  9.9070523010
Li  0.0000000000  0.0000000000  0.0000000000
Li  5.1834571245  2.5042356900  8.8112913480
Li  0.2109092580  4.4697840660  0.8709502185
Al  3.1692535875  6.5214122895  0.3540834270
Al  2.2251127950  0.4526074665  9.3281581395
Al  0.7795240875  1.4968239615  3.2851923705
Al  4.6148422950  5.4771957945  6.3970491960
13
scale = 1.40000
Li  1.0079973960  6.0855000220  4.2637965020
Li  1.6474229800  3.4341136760  6.8936074620
Li  3.9467347640  3.7982031080  3.1472356440
Li  3.1409749980  2.3489156040  -0.2331370580
Li  4.5861603480  1.1468167620  5.7770466040
Li  2.4531827320  4.8834011800  10.2739801640
Li  0.0000000000  0.0000000000  0.0000000000
Li  5.3754370180  2.5969851600  9.1376354720
Li  0.2187207120  4.6353316240  0.9032076340
Al  3.2866333500  6.7629460780  0.3671976280
Al  2.3075243800  0.4693707060  9.6736454780
Al  0.8083953500  1.5522618860  3.4068661620
Al  4.7857623800  5.6800548980  6.6339769440
13
scale = 1.45000
Li  1.0439973030  6.3028393085  4.4160749485
Li  1.7062595150  3.5567605930  7.1398077285
Li  4.0876895770  3.9338532190  3.2596369170
Li  3.2531526765  2.4328054470  -0.2414633815
Li  4.7499517890  1.1877745035  5.9833696970
Li  2.5407964010  5.0578083650  10.6409080270
Li  0.0000000000  0.0000000000  0.0000000000
Li  5.5674169115  2.6897346300  9.4639795960
Li  0.2265321660  4.8008791820  0.9354650495
Al  3.4040131125  7.0044798665  0.3803118290
Al  2.3899359650  0.4861339455  10.0191328165
Al  0.8372666125  1.6076998105  3.5285399535
Al  4.9566824650  5.8829140015  6.8709046920
13
scale = 1.50000
Li  1.0799972100  6.5201785950  4.5683533950
Li  1.7650960500  3.6794075100  7.3860079950
Li  4.2286443900  4.0695033300  3.3720381900
Li  3.3653303550  2.5166952900  -0.2497897050
Li  4.9137432300  1.2287322450  6.1896927900
Li  2.6284100700  5.2322155500  11.0078358900
Li  0.0000000000  0.0000000000  0.0000000000
Li  5.7593968050  2.7824841000  9.7903237200
Li  0.2343436200  4.9664267400  0.9677224650
Al  3.5213928750  7.2460136550  0.3934260300
Al  2.4723475500  0.5028971850  10.3646201550
Al  0.8661378750  1.6631377350  3.6502137450
Al  5.1276025500  6.0857731050  7.1078324400
13
scale = 1.55000
Li  1.1159971170  6.7375178815  4.7206318415
Li  1.8239325850  3.8020544270  7.6322082615
Li  4.3695992030  4.2051534410  3.4844394630
Li  3.4775080335  2.6005851330  -0.2581160285
Li  5.0775346710  1.2696899865  6.3960158830
Li  2.7160237390  5.4066227350  11.3747637530
Li  0.0000000000  0.0000000000  0.0000000000
Li  5.9513766985  2.8752335700  10.1166678440
Li  0.2421550740  5.1319742980  0.9999798805
Al  3.6387726375  7.4875474435  0.4065402310
Al  2.5547591350  0.5196604245  10.7101074935
Al  0.8950091375  1.7185756595  3.7718875365
Al  5.2985226350  6.2886322085  7.3447601880
13
scale = 1.60000
Li  1.1519970240  6.9548571680  4.8729102880
Li  1.8827691200  3.9247013440  7.8784085280
Li  4.5105540160  4.3408035520  3.5968407360
Li  3.5896857120  2.6844749760  -0.2664423520
Li  5.2413261120  1.3106477280  6.6023389760
Li  2.8036374080  5.5810299200  11.7416916160
Li  0.0000000000  0.0000000000  0.0000000000
Li  6.1433565920  2.9679830400  10.4430119680
Li  0.2499665280  5.2975218560  1.0322372960
Al  3.7561524000  7.7290812320  0.4196544320
Al  2.6371707200  0.5364236640  11.0555948320
Al  0.9238804000  1.7740135840  3.8935613280
Al  5.4694427200  6.4914913120  7.5816879360
13
scale = 1.65000
Li  1.1879969310  7.1721964545  5.0251887345
Li  1.9416056550  4.0473482610  8.1246087945
Li  4.6515088290  4.4764536630  3.7092420090
Li  3.7018633905  2.7683648190  -0.2747686755
Li  5.4051175530  1.3516054695  6.8086620690
Li  2.8912510770  5.7554371050  12.1086194790
Li  0.0000000000  0.0000000000  0.0000000000
Li  6.3353364855  3.0607325100  10.7693560920
Li  0.2577779820  5.4630694140  1.0644947115
Al  3.8735321625  7.9706150205  0.4327686330
Al  2.7195823050  0.5531869035  11.4010821705
Al  0.9527516625  1.8294515085  4.0152351195
Al  5.6403628050  6.6943504155  7.8186156840
13
scale = 1.70000
Li  1.2239968380  7.3895357410  5.1774671810
Li  2.0004421900  4.1699951780  8.3708090610
Li  4.7924636420  4.6121037740  3.8216432820
Li  3.8140410690  2.8522546620  -0.2830949990
Li  5.5689089940  1.3925632110  7.0149851620
Li  2.9788647460  5.9298442900  12.4755473420
Li  0.0000000000  0.0000000000  0.0000000000
Li  6.5273163790  3.1534819800  11.0957002160
Li  0.2655894360  5.6286169720  1.0967521270
Al  3.9909119250  8.2121488090  0.4458828340
Al  2.8019938900  0.5699501430  11.7465695090
Al  0.9816229250  1.8848894330  4.1369089110
Al  5.8112828900  6.8972095190  8.0555434320
13
scale = 1.75000
Li  1.2599967450  7.6068750275  5.3297456275
Li  2.0592787250  4.2926420950  8.6170093275
Li  4.9334184550  4.7477538850  3.9340445550
Li  3.9262187475  2.9361445050  -0.2914213225
Li  5.7327004350  1.4335209525  7.2213082550
Li  3.0664784150  6.1042514750  12.8424752050
Li  0.0000000000  0.0000000000  0.0000000000
Li  6.7192962725  3.2462314500  11.4220443400
Li  0.2734008900  5.7941645300  1.1290095425
Al  4.1082916875  8.4536825975  0.4589970350
Al  2.8844054750  0.5867133825  12.0920568475
Al  1.0104941875  1.9403273575  4.2585827025
Al  5.9822029750  7.1000686225  8.2924711800
13
scale = 1.80000
Li  1.2959966520  7.8242143140  5.4820240740
Li  2.1181152600  4.4152890120  8.8632095940
Li  5.0743732680  4.8834039960  4.0464458280
Li  4.0383964260  3.0200343480  -0.2997476460
Li  5.8964918760  1.4744786940  7.4276313480
Li  3.1540920840  6.2786586600  13.2094030680
Li  0.0000000000  0.0000000000  0.0000000000
Li  6.9112761660  3.3389809200  11.7483884640
Li  0.2812123440  5.9597120880  1.1612669580
Al  4.2256714500  8.6952163860  0.4721112360
Al  2.9668170600  0.6034766220  12.4375441860
Al  1.0393654500  1.9957652820  4.3802564940
Al  6.1531230600  7.3029277260  8.5293989280
13
scale = 1.85000
Li  1.3319965590  8.0415536005  5.6343025205
Li  2.1769517950  4.5379359290  9.1094098605
Li  5.2153280810  5.0190541070  4.1588471010
Li  4.1505741045  3.1039241910  -0.3080739695
Li  6.0602833170  1.5154364355  7.6339544410
Li  3.2417057530  6.4530658450  13.5763309310
Li  0.0000000000  0.0000000000  0.0000000000
Li  7.1032560595  3.4317303900  12.0747325880
Li  0.2890237980  6.1252596460  1.1935243735
Al  4.3430512125  8.9367501745  0.4852254370
Al  3.0492286450  0.6202398615  12.7830315245
Al  1.0682367125  2.0512032065  4.5019302855
Al  6.3240431450  7.5057868295  8.7663266760
13
scale = 1.90000
Li  1.3679964660  8.2588928870  5.7865809670
Li  2.2357883300  4.6605828460  9.3556101270
Li  5.3562828940  5.1547042180  4.2712483740
Li  4.2627517830  3.1878140340  -0.3164002930
Li  6.2240747580  1.5563941770  7.8402775340
Li  3.3293194220  6.6274730300  13.9432587940
Li  0.0000000000  0.0000000000  0.0000000000
Li  7.2952359530  3.5244798600  12.4010767120
Li  0.2968352520  6.2908072040  1.2257817890
Al  4.4604309750  9.1782839630  0.4983396380
Al  3.1316402300  0.6370031010  13.1285188630
Al  1.0971079750  2.1066411310  4.6236040770
Al  6.4949632300  7.7086459330  9.0032544240
13
scale = 1.95000
Li  1.4039963730  8.4762321735  5.9388594135
Li  2.2946248650  4.7832297630  9.6018103935
Li  5.4972377070  5.2903543290  4.3836496470
Li  4.3749294615  3.2717038770  -0.3247266165
Li  6.3878661990  1.5973519185  8.0466006270
Li  3.4169330910  6.8018802150  14.3101866570
Li  0.0000000000  0.0000000000  0.0000000000
Li  7.4872158465  3.6172293300  12.7274208360
Li  0.3046467060  6.4563547620  1.2580392045
Al  4.5778107375  9.4198177515  0.5114538390
Al  3.2140518150  0.6537663405  13.4740062015
Al  1.1259792375  2.1620790555  4.7452778685
Al  6.6658833150  7.9115050365  9.2401821720
13
scale = 2.00000
Li  1.4399962800  8.6935714600  6.0911378600
Li  2.3534614000  4.9058766800  9.8480106600
Li  5.6381925200  5.4260044400  4.4960509200
Li  4.4871071400  3.3555937200  -0.3330529400
Li  6.5516576400  1.6383096600  8.2529237200
Li  3.5045467600  6.9762874000  14.6771145200
Li  0.0000000000  0.0000000000  0.0000000000
Li  7.6791957400  3.7099788000  13.0537649600
Li  0.3124581600  6.6219023200  1.2902966200
Al  4.6951905000  9.6613515400  0.5245680400
Al  3.2964634000  0.6705295800  13.8194935400
Al  1.1548505000  2.2175169800  4.8669516600
Al  6.8368034000  8.1143641400  9.4771099200
13
scale = 2.05000
Li  1.4759961870  8.9109107465  6.2434163065
Li  2.4122979350  5.0285235970  10.0942109265
Li  5.7791473330  5.5616545510  4.6084521930
Li  4.5992848185  3.4394835630  -0.3413792635
Li  6.7154490810  1.6792674015  8.4592468130
Li  3.5921604290  7.1506945850  15.0440423830
Li  0.0000000000  0.0000000000  0.0000000000
Li  7.8711756335  3.8027282700  13.3801090840
Li  0.3202696140  6.7874498780  1.3225540355
Al  4.8125702625  9.9028853285  0.5376822410
Al  3.3788749850  0.6872928195  14.1649808785
Al  1.1837217625  2.2729549045  4.9886254515
Al  7.0077234850  8.3172232435  9.7140376680
13
scale = 2.10000
Li  1.5119960940  9.1282500330  6.3956947530
Li  2.4711344700  5.1511705140  10.3404111930
Li  5.9201021460  5.6973046620  4.7208534660
Li  4.7114624970  3.5233734060  -0.3497055870
Li  6.8792405220  1.7202251430  8.6655699060
Li  3.6797740980  7.3251017700  15.4109702460
Li  0.0000000000  0.0000000000  0.0000000000
Li  8.0631555270  3.8954777400  13.7064532080
Li  0.3280810680  6.9529974360  1.3548114510
Al  4.9299500250  10.1444191170  0.5507964420
Al  3.4612865700  0.7040560590  14.5104682170
Al  1.2125930250  2.3283928290  5.1102992430
Al  7.1786435700  8.5200823470  9.9509654160
13
scale = 2.15000
Li  1.5479960010  9.3455893195  6.5479731995
Li  2.5299710050  5.2738174310  10.5866114595
Li  6.0610569590  5.8329547730  4.8332547390
Li  4.8236401755  3.6072632490  -0.3580319105
Li  7.0430319630  1.7611828845  8.8718929990
Li  3.7673877670  7.4995089550  15.7778981090
Li  0.0000000000  0.0000000000  0.0000000000
Li  8.2551354205  3.9882272100  14.0327973320
Li  0.3358925220  7.1185449940  1.3870688665
Al  5.0473297875  10.3859529055  0.5639106430
Al  3.5436981550  0.7208192985  14.8559555555
Al  1.2414642875  2.3838307535  5.2319730345
Al  7.3495636550  8.7229414505  10.1878931640
13
scale = 2.20000
Li  1.5839959080  9.5629286060  6.7002516460
Li  2.5888075400  5.3964643480  10.8328117260
Li  6.2020117720  5.9686048840  4.9456560120
Li  4.9358178540  3.6911530920  -0.3663582340
Li  7.2068234040  1.8021406260  9.0782160920
Li  3.8550014360  7.6739161400  16.1448259720
Li  0.0000000000  0.0000000000  0.0000000000
Li  8.4471153140  4.0809766800  14.3591414560
Li  0.3437039760  7.2840925520  1.4193262820
Al  5.1647095500  10.6274866940  0.5770248440
Al  3.6261097400  0.7375825380  15.2014428940
Al  1.2703355500  2.4392686780  5.3536468260
Al  7.5204837400  8.9258005540  10.4248209120
13
scale = 2.25000
Li  1.6199958150  9.7802678925  6.8525300925
Li  2.6476440750  5.5191112650  11.0790119925
Li  6.3429665850  6.1042549950  5.0580572850
Li  5.0479955325  3.7750429350  -0.3746845575
Li  7.3706148450  1.8430983675  9.2845391850
Li  3.9426151050  7.8483233250  16.5117538350
Li  0.0000000000  0.0000000000  0.0000000000
Li  8.6390952075  4.1737261500  14.6854855800
Li  0.3515154300  7.4496401100  1.4515836975
Al  5.2820893125  10.8690204825  0.5901390450
Al  3.7085213250  0.7543457775  15.5469302325
Al  1.2992068125  2.4947066025  5.4753206175
Al  7.6914038250  9.1286596575  10.6617486600
13
scale = 2.30000
Li  1.6559957220  9.9976071790  7.0048085390
Li  2.7064806100  5.6417581820  11.3252122590
Li  6.4839213980  6.2399051060  5.1704585580
Li  5.1601732110  3.8589327780  -0.3830108810
Li  7.5344062860  1.8840561090  9.4908622780
Li  4.0302287740  8.0227305100  16.8786816980
Li  0.0000000000  0.0000000000  0.0000000000
Li  8.8310751010  4.2664756200  15.0118297040
Li  0.3593268840  7.6151876680  1.4838411130
Al  5.3994690750  11.1105542710  0.6032532460
Al  3.7909329100  0.7711090170  15.8924175710
Al  1.3280780750  2.5501445270  5.5969944090
Al  7.8623239100  9.3315187610  10.8986764080
13
scale = 2.35000
Li  1.6919956290  10.2149464655  7.1570869855
Li  2.7653171450  5.7644050990  11.5714125255
Li  6.6248762110  6.3755552170  5.2828598310
Li  5.2723508895  3.9428226210  -0.3913372045
Li  7.6981977270  1.9250138505  9.6971853710
Li  4.1178424430  8.1971376950  17.2456095610
Li  0.0000000000  0.0000000000  0.0000000000
Li  9.0230549945  4.3592250900  15.3381738280
Li  0.3671383380  7.7807352260  1.5160985285
Al  5.5168488375  11.3520880595  0.6163674470
Al  3.8733444950  0.7878722565  16.2379049095
Al  1.3569493375  2.6055824515  5.7186682005
Al  8.0332439950  9.5343778645  11.1356041560
13
scale = 2.40000
Li  1.7279955360  10.4322857520  7.3093654320
Li  2.8241536800  5.8870520160  11.8176127920
Li  6.7658310240  6.5112053280  5.3952611040
Li  5.3845285680  4.0267124640  -0.3996635280
Li  7.8619891680  1.9659715920  9.9035084640
Li  4.2054561120  8.3715448800  17.6125374240
Li  0.0000000000  0.0000000000  0.0000000000
Li  9.2150348880  4.4519745600  15.6645179520
Li  0.3749497920  7.9462827840  1.5483559440
Al  5.6342286000  11.5936218480  0.6294816480
Al  3.9557560800  0.8046354960  16.5833922480
Al  1.3858206000  2.6610203760  5.8403419920
Al  8.2041640800  9.7372369680  11.3725319040
13
scale = 2.45000
Li  1.7639954430  10.6496250385  7.4616438785
Li  2.8829902150  6.0096989330  12.0638130585
Li  6.9067858370  6.6468554390  5.5076623770
Li  5.4967062465  4.1106023070  -0.4079898515
Li  8.0257806090  2.0069293335  10.1098315570
Li  4.2930697810  8.5459520650  17.9794652870
Li  0.0000000000  0.0000000000  0.0000000000
Li  9.4070147815  4.5447240300  15.9908620760
Li  0.3827612460  8.1118303420  1.5806133595
Al  5.7516083625  11.8351556365  0.6425958490
Al  4.0381676650  0.8213987355  16.9288795865
Al  1.4146918625  2.7164583005  5.9620157835
Al  8.3750841650  9.9400960715  11.6094596520
