2
scale = 0.75000
Li  1.1710276275  1.1710276275  1.1710276275
Ag  0.0000000000  0.0000000000  0.0000000000
2
scale = 0.80000
Li  1.2490961360  1.2490961360  1.2490961360
Ag  0.0000000000  0.0000000000  0.0000000000
2
scale = 0.85000
Li  1.3271646445  1.3271646445  1.3271646445
Ag  0.0000000000  0.0000000000  0.0000000000
2
scale = 0.90000
Li  1.4052331530  1.4052331530  1.4052331530
Ag  0.0000000000  0.0000000000  0.0000000000
2
scale = 0.95000
Li  1.4833016615  1.4833016615  1.4833016615
Ag  0.0000000000  0.0000000000  0.0000000000
2
scale = 1.00000
Li  1.5613701700  1.5613701700  1.5613701700
Ag  0.0000000000  0.0000000000  0.0000000000
2
scale = 1.05000
Li  1.6394386785  1.6394386785  1.6394386785
Ag  0.0000000000  0.0000000000  0.0000000000
2
scale = 1.10000
Li  1.7175071870  1.7175071870  1.7175071870
Ag  0.0000000000  0.0000000000  0.0000000000
2
scale = 1.15000
Li  1.7955756955  1.7955756955  1.7955756955
Ag  0.0000000000  0.0000000000  0.0000000000
2
scale = 1.20000
Li  1.8736442040  1.8736442040  1.8736442040
Ag  0.0000000000  0.0000000000  0.0000000000
2
scale = 1.25000
Li  1.9517127125  1.9517127125  1.9517127125
Ag  0.0000000000  0.0000000000  0.0000000000
2
scale = 1.30000
Li  2.0297812210  2.0297812210  2.0297812210
Ag  0.0000000000  0.0000000000  0.0000000000
2
scale = 1.35000
Li  2.1078497295  2.1078497295  2.1078497295
Ag  0.0000000000  0.0000000000  0.0000000000
2
scale = 1.40000
Li  2.1859182380  2.1859182380  2.1859182380
Ag  0.0000000000  0.0000000000  0.0000000000
2
scale = 1.45000
Li  2.2639867465  2.2639867465  2.2639867465
Ag  0.0000000000  0.0000000000  0.0000000000
2
scale = 1.50000
Li  2.3420552550  2.3420552550  2.3420552550
Ag  0.0000000000  0.0000000000  0.0000000000
2
scale = 1.55000
Li  2.4201237635  2.4201237635  2.4201237635
Ag  0.0000000000  0.0000000000  0.0000000000
2
scale = 1.60000
Li  2.4981922720  2.4981922720  2.4981922720
Ag  0.0000000000  0.0000000000  0.0000000000
2
scale = 1.65000
Li  2.5762607805  2.5762607805  2.5762607805
Ag  0.0000000000  0.0000000000  0.0000000000
2
scale = 1.70000
Li  2.6543292890  2.6543292890  2.6543292890
Ag  0.0000000000  0.0000000000  0.0000000000
2
scale = 1.75000
Li  2.7323977975  2.7323977975  2.7323977975
Ag  0.0000000000  0.0000000000  0.0000000000
2
scale = 1.80000
Li  2.8104663060  2.8104663060  2.8104663060
Ag  0.0000000000  0.0000000000  0.0000000000
2
scale = 1.85000
Li  2.8885348145  2.8885348145  2.8885348145
Ag  0.0000000000  0.0000000000  0.0000000000
2
scale = 1.90000
Li  2.9666033230  2.9666033230  2.9666033230
Ag  0.0000000000  0.0000000000  0.0000000000
2
scale = 1.95000
Li  3.0446718315  3.0446718315  3.0446718315
Ag  0.0000000000  0.0000000000  0.0000000000
2
scale = 2.00000
Li  3.1227403400  3.1227403400  3.1227403400
Ag  0.0000000000  0.0000000000  0.0000000000
2
scale = 2.05000
Li  3.2008088485  3.2008088485  3.2008088485
Ag  0.0000000000  0.0000000000  0.0000000000
2
scale = 2.10000
Li  3.2788773570  3.2788773570  3.2788773570
Ag  0.0000000000  0.0000000000  0.0000000000
2
scale = 2.15000
Li  3.3569458655  3.3569458655  3.3569458655
Ag  0.0000000000  0.0000000000  0.0000000000
2
scale = 2.20000
Li  3.4350143740  3.4350143740  3.4350143740
Ag  0.0000000000  0.0000000000  0.0000000000
2
scale = 2.25000
Li  3.5130828825  3.5130828825  3.5130828825
Ag  0.0000000000  0.0000000000  0.0000000000
2
scale = 2.30000
Li  3.5911513910  3.5911513910  3.5911513910
Ag  0.0000000000  0.0000000000  0.0000000000
2
scale = 2.35000
Li  3.6692198995  3.6692198995  3.6692198995
Ag  0.0000000000  0.0000000000  0.0000000000
2
scale = 2.40000
Li  3.7472884080  3.7472884080  3.7472884080
Ag  0.0000000000  0.0000000000  0.0000000000
2
scale = 2.45000
Li  3.8253569165  3.8253569165  3.8253569165
Ag  0.0000000000  0.0000000000  0.0000000000
