4
scale = 0.75000
Li  1.9591650225  0.6920033850  -0.1408799250
Li  0.9366346050  1.3840067700  -1.8179629950
Ag  -0.0858958200  2.0760101550  -0.1408799250
Ag  0.0000000000  0.0000000000  0.0000000000
4
scale = 0.80000
Li  2.0897760240  0.7381369440  -0.1502719200
Li  0.9990769120  1.4762738880  -1.9391605280
Ag  -0.0916222080  2.2144108320  -0.1502719200
Ag  0.0000000000  0.0000000000  0.0000000000
4
scale = 0.85000
Li  2.2203870255  0.7842705030  -0.1596639150
Li  1.0615192190  1.5685410060  -2.0603580610
Ag  -0.0973485960  2.3528115090  -0.1596639150
Ag  0.0000000000  0.0000000000  0.0000000000
4
scale = 0.90000
Li  2.3509980270  0.8304040620  -0.1690559100
Li  1.1239615260  1.6608081240  -2.1815555940
Ag  -0.1030749840  2.4912121860  -0.1690559100
Ag  0.0000000000  0.0000000000  0.0000000000
4
scale = 0.95000
Li  2.4816090285  0.8765376210  -0.1784479050
Li  1.1864038330  1.7530752420  -2.3027531270
Ag  -0.1088013720  2.6296128630  -0.1784479050
Ag  0.0000000000  0.0000000000  0.0000000000
4
scale = 1.00000
Li  2.6122200300  0.9226711800  -0.1878399000
Li  1.2488461400  1.8453423600  -2.4239506600
Ag  -0.1145277600  2.7680135400  -0.1878399000
Ag  0.0000000000  0.0000000000  0.0000000000
4
scale = 1.05000
Li  2.7428310315  0.9688047390  -0.1972318950
Li  1.3112884470  1.9376094780  -2.5451481930
Ag  -0.1202541480  2.9064142170  -0.1972318950
Ag  0.0000000000  0.0000000000  0.0000000000
4
scale = 1.10000
Li  2.8734420330  1.0149382980  -0.2066238900
Li  1.3737307540  2.0298765960  -2.6663457260
Ag  -0.1259805360  3.0448148940  -0.2066238900
Ag  0.0000000000  0.0000000000  0.0000000000
4
scale = 1.15000
Li  3.0040530345  1.0610718570  -0.2160158850
Li  1.4361730610  2.1221437140  -2.7875432590
Ag  -0.1317069240  3.1832155710  -0.2160158850
Ag  0.0000000000  0.0000000000  0.0000000000
4
scale = 1.20000
Li  3.1346640360  1.1072054160  -0.2254078800
Li  1.4986153680  2.2144108320  -2.9087407920
Ag  -0.1374333120  3.3216162480  -0.2254078800
Ag  0.0000000000  0.0000000000  0.0000000000
4
scale = 1.25000
Li  3.2652750375  1.1533389750  -0.2347998750
Li  1.5610576750  2.3066779500  -3.0299383250
Ag  -0.1431597000  3.4600169250  -0.2347998750
Ag  0.0000000000  0.0000000000  0.0000000000
4
scale = 1.30000
Li  3.3958860390  1.1994725340  -0.2441918700
Li  1.6234999820  2.3989450680  -3.1511358580
Ag  -0.1488860880  3.5984176020  -0.2441918700
Ag  0.0000000000  0.0000000000  0.0000000000
4
scale = 1.35000
Li  3.5264970405  1.2456060930  -0.2535838650
Li  1.6859422890  2.4912121860  -3.2723333910
Ag  -0.1546124760  3.7368182790  -0.2535838650
Ag  0.0000000000  0.0000000000  0.0000000000
4
scale = 1.40000
Li  3.6571080420  1.2917396520  -0.2629758600
Li  1.7483845960  2.5834793040  -3.3935309240
Ag  -0.1603388640  3.8752189560  -0.2629758600
Ag  0.0000000000  0.0000000000  0.0000000000
4
scale = 1.45000
Li  3.7877190435  1.3378732110  -0.2723678550
Li  1.8108269030  2.6757464220  -3.5147284570
Ag  -0.1660652520  4.0136196330  -0.2723678550
Ag  0.0000000000  0.0000000000  0.0000000000
4
scale = 1.50000
Li  3.9183300450  1.3840067700  -0.2817598500
Li  1.8732692100  2.7680135400  -3.6359259900
Ag  -0.1717916400  4.1520203100  -0.2817598500
Ag  0.0000000000  0.0000000000  0.0000000000
4
scale = 1.55000
Li  4.0489410465  1.4301403290  -0.2911518450
Li  1.9357115170  2.8602806580  -3.7571235230
Ag  -0.1775180280  4.2904209870  -0.2911518450
Ag  0.0000000000  0.0000000000  0.0000000000
4
scale = 1.60000
Li  4.1795520480  1.4762738880  -0.3005438400
Li  1.9981538240  2.9525477760  -3.8783210560
Ag  -0.1832444160  4.4288216640  -0.3005438400
Ag  0.0000000000  0.0000000000  0.0000000000
4
scale = 1.65000
Li  4.3101630495  1.5224074470  -0.3099358350
Li  2.0605961310  3.0448148940  -3.9995185890
Ag  -0.1889708040  4.5672223410  -0.3099358350
Ag  0.0000000000  0.0000000000  0.0000000000
4
scale = 1.70000
Li  4.4407740510  1.5685410060  -0.3193278300
Li  2.1230384380  3.1370820120  -4.1207161220
Ag  -0.1946971920  4.7056230180  -0.3193278300
Ag  0.0000000000  0.0000000000  0.0000000000
4
scale = 1.75000
Li  4.5713850525  1.6146745650  -0.3287198250
Li  2.1854807450  3.2293491300  -4.2419136550
Ag  -0.2004235800  4.8440236950  -0.3287198250
Ag  0.0000000000  0.0000000000  0.0000000000
4
scale = 1.80000
Li  4.7019960540  1.6608081240  -0.3381118200
Li  2.2479230520  3.3216162480  -4.3631111880
Ag  -0.2061499680  4.9824243720  -0.3381118200
Ag  0.0000000000  0.0000000000  0.0000000000
4
scale = 1.85000
Li  4.8326070555  1.7069416830  -0.3475038150
Li  2.3103653590  3.4138833660  -4.4843087210
Ag  -0.2118763560  5.1208250490  -0.3475038150
Ag  0.0000000000  0.0000000000  0.0000000000
4
scale = 1.90000
Li  4.9632180570  1.7530752420  -0.3568958100
Li  2.3728076660  3.5061504840  -4.6055062540
Ag  -0.2176027440  5.2592257260  -0.3568958100
Ag  0.0000000000  0.0000000000  0.0000000000
4
scale = 1.95000
Li  5.0938290585  1.7992088010  -0.3662878050
Li  2.4352499730  3.5984176020  -4.7267037870
Ag  -0.2233291320  5.3976264030  -0.3662878050
Ag  0.0000000000  0.0000000000  0.0000000000
4
scale = 2.00000
Li  5.2244400600  1.8453423600  -0.3756798000
Li  2.4976922800  3.6906847200  -4.8479013200
Ag  -0.2290555200  5.5360270800  -0.3756798000
Ag  0.0000000000  0.0000000000  0.0000000000
4
scale = 2.05000
Li  5.3550510615  1.8914759190  -0.3850717950
Li  2.5601345870  3.7829518380  -4.9690988530
Ag  -0.2347819080  5.6744277570  -0.3850717950
Ag  0.0000000000  0.0000000000  0.0000000000
4
scale = 2.10000
Li  5.4856620630  1.9376094780  -0.3944637900
Li  2.6225768940  3.8752189560  -5.0902963860
Ag  -0.2405082960  5.8128284340  -0.3944637900
Ag  0.0000000000  0.0000000000  0.0000000000
4
scale = 2.15000
Li  5.6162730645  1.9837430370  -0.4038557850
Li  2.6850192010  3.9674860740  -5.2114939190
Ag  -0.2462346840  5.9512291110  -0.4038557850
Ag  0.0000000000  0.0000000000  0.0000000000
4
scale = 2.20000
Li  5.7468840660  2.0298765960  -0.4132477800
Li  2.7474615080  4.0597531920  -5.3326914520
Ag  -0.2519610720  6.0896297880  -0.4132477800
Ag  0.0000000000  0.0000000000  0.0000000000
4
scale = 2.25000
Li  5.8774950675  2.0760101550  -0.4226397750
Li  2.8099038150  4.1520203100  -5.4538889850
Ag  -0.2576874600  6.2280304650  -0.4226397750
Ag  0.0000000000  0.0000000000  0.0000000000
4
scale = 2.30000
Li  6.0081060690  2.1221437140  -0.4320317700
Li  2.8723461220  4.2442874280  -5.5750865180
Ag  -0.2634138480  6.3664311420  -0.4320317700
Ag  0.0000000000  0.0000000000  0.0000000000
4
scale = 2.35000
Li  6.1387170705  2.1682772730  -0.4414237650
Li  2.9347884290  4.3365545460  -5.6962840510
Ag  -0.2691402360  6.5048318190  -0.4414237650
Ag  0.0000000000  0.0000000000  0.0000000000
4
scale = 2.40000
Li  6.2693280720  2.2144108320  -0.4508157600
Li  2.9972307360  4.4288216640  -5.8174815840
Ag  -0.2748666240  6.6432324960  -0.4508157600
Ag  0.0000000000  0.0000000000  0.0000000000
4
scale = 2.45000
Li  6.3999390735  2.2605443910  -0.4602077550
Li  3.0596730430  4.5210887820  -5.9386791170
Ag  -0.2805930120  6.7816331730  -0.4602077550
Ag  0.0000000000  0.0000000000  0.0000000000
