4
scale = 0.75000
Li  0.0000000000  0.0000000000  0.0000000000
Al  1.9164357150  0.6707569875  -0.6035855025
Al  0.2709161025  2.0122736475  -0.6035855025
Al  1.0936813725  1.3415220300  -2.4366592575
4
scale = 0.80000
Li  0.0000000000  0.0000000000  0.0000000000
Al  2.0441980960  0.7154741200  -0.6438245360
Al  0.2889771760  2.1464252240  -0.6438245360
Al  1.1665934640  1.4309568320  -2.5991032080
4
scale = 0.85000
Li  0.0000000000  0.0000000000  0.0000000000
Al  2.1719604770  0.7601912525  -0.6840635695
Al  0.3070382495  2.2805768005  -0.6840635695
Al  1.2395055555  1.5203916340  -2.7615471585
4
scale = 0.90000
Li  0.0000000000  0.0000000000  0.0000000000
Al  2.2997228580  0.8049083850  -0.7243026030
Al  0.3250993230  2.4147283770  -0.7243026030
Al  1.3124176470  1.6098264360  -2.9239911090
4
scale = 0.95000
Li  0.0000000000  0.0000000000  0.0000000000
Al  2.4274852390  0.8496255175  -0.7645416365
Al  0.3431603965  2.5488799535  -0.7645416365
Al  1.3853297385  1.6992612380  -3.0864350595
4
scale = 1.00000
Li  0.0000000000  0.0000000000  0.0000000000
Al  2.5552476200  0.8943426500  -0.8047806700
Al  0.3612214700  2.6830315300  -0.8047806700
Al  1.4582418300  1.7886960400  -3.2488790100
4
scale = 1.05000
Li  0.0000000000  0.0000000000  0.0000000000
Al  2.6830100010  0.9390597825  -0.8450197035
Al  0.3792825435  2.8171831065  -0.8450197035
Al  1.5311539215  1.8781308420  -3.4113229605
4
scale = 1.10000
Li  0.0000000000  0.0000000000  0.0000000000
Al  2.8107723820  0.9837769150  -0.8852587370
Al  0.3973436170  2.9513346830  -0.8852587370
Al  1.6040660130  1.9675656440  -3.5737669110
4
scale = 1.15000
Li  0.0000000000  0.0000000000  0.0000000000
Al  2.9385347630  1.0284940475  -0.9254977705
Al  0.4154046905  3.0854862595  -0.9254977705
Al  1.6769781045  2.0570004460  -3.7362108615
4
scale = 1.20000
Li  0.0000000000  0.0000000000  0.0000000000
Al  3.0662971440  1.0732111800  -0.9657368040
Al  0.4334657640  3.2196378360  -0.9657368040
Al  1.7498901960  2.1464352480  -3.8986548120
4
scale = 1.25000
Li  0.0000000000  0.0000000000  0.0000000000
Al  3.1940595250  1.1179283125  -1.0059758375
Al  0.4515268375  3.3537894125  -1.0059758375
Al  1.8228022875  2.2358700500  -4.0610987625
4
scale = 1.30000
Li  0.0000000000  0.0000000000  0.0000000000
Al  3.3218219060  1.1626454450  -1.0462148710
Al  0.4695879110  3.4879409890  -1.0462148710
Al  1.8957143790  2.3253048520  -4.2235427130
4
scale = 1.35000
Li  0.0000000000  0.0000000000  0.0000000000
Al  3.4495842870  1.2073625775  -1.0864539045
Al  0.4876489845  3.6220925655  -1.0864539045
Al  1.9686264705  2.4147396540  -4.3859866635
4
scale = 1.40000
Li  0.0000000000  0.0000000000  0.0000000000
Al  3.5773466680  1.2520797100  -1.1266929380
Al  0.5057100580  3.7562441420  -1.1266929380
Al  2.0415385620  2.5041744560  -4.5484306140
4
scale = 1.45000
Li  0.0000000000  0.0000000000  0.0000000000
Al  3.7051090490  1.2967968425  -1.1669319715
Al  0.5237711315  3.8903957185  -1.1669319715
Al  2.1144506535  2.5936092580  -4.7108745645
4
scale = 1.50000
Li  0.0000000000  0.0000000000  0.0000000000
Al  3.8328714300  1.3415139750  -1.2071710050
Al  0.5418322050  4.0245472950  -1.2071710050
Al  2.1873627450  2.6830440600  -4.8733185150
4
scale = 1.55000
Li  0.0000000000  0.0000000000  0.0000000000
Al  3.9606338110  1.3862311075  -1.2474100385
Al  0.5598932785  4.1586988715  -1.2474100385
Al  2.2602748365  2.7724788620  -5.0357624655
4
scale = 1.60000
Li  0.0000000000  0.0000000000  0.0000000000
Al  4.0883961920  1.4309482400  -1.2876490720
Al  0.5779543520  4.2928504480  -1.2876490720
Al  2.3331869280  2.8619136640  -5.1982064160
4
scale = 1.65000
Li  0.0000000000  0.0000000000  0.0000000000
Al  4.2161585730  1.4756653725  -1.3278881055
Al  0.5960154255  4.4270020245  -1.3278881055
Al  2.4060990195  2.9513484660  -5.3606503665
4
scale = 1.70000
Li  0.0000000000  0.0000000000  0.0000000000
Al  4.3439209540  1.5203825050  -1.3681271390
Al  0.6140764990  4.5611536010  -1.3681271390
Al  2.4790111110  3.0407832680  -5.5230943170
4
scale = 1.75000
Li  0.0000000000  0.0000000000  0.0000000000
Al  4.4716833350  1.5650996375  -1.4083661725
Al  0.6321375725  4.6953051775  -1.4083661725
Al  2.5519232025  3.1302180700  -5.6855382675
4
scale = 1.80000
Li  0.0000000000  0.0000000000  0.0000000000
Al  4.5994457160  1.6098167700  -1.4486052060
Al  0.6501986460  4.8294567540  -1.4486052060
Al  2.6248352940  3.2196528720  -5.8479822180
4
scale = 1.85000
Li  0.0000000000  0.0000000000  0.0000000000
Al  4.7272080970  1.6545339025  -1.4888442395
Al  0.6682597195  4.9636083305  -1.4888442395
Al  2.6977473855  3.3090876740  -6.0104261685
4
scale = 1.90000
Li  0.0000000000  0.0000000000  0.0000000000
Al  4.8549704780  1.6992510350  -1.5290832730
Al  0.6863207930  5.0977599070  -1.5290832730
Al  2.7706594770  3.3985224760  -6.1728701190
4
scale = 1.95000
Li  0.0000000000  0.0000000000  0.0000000000
Al  4.9827328590  1.7439681675  -1.5693223065
Al  0.7043818665  5.2319114835  -1.5693223065
Al  2.8435715685  3.4879572780  -6.3353140695
4
scale = 2.00000
Li  0.0000000000  0.0000000000  0.0000000000
Al  5.1104952400  1.7886853000  -1.6095613400
Al  0.7224429400  5.3660630600  -1.6095613400
Al  2.9164836600  3.5773920800  -6.4977580200
4
scale = 2.05000
Li  0.0000000000  0.0000000000  0.0000000000
Al  5.2382576210  1.8334024325  -1.6498003735
Al  0.7405040135  5.5002146365  -1.6498003735
Al  2.9893957515  3.6668268820  -6.6602019705
4
scale = 2.10000
Li  0.0000000000  0.0000000000  0.0000000000
Al  5.3660200020  1.8781195650  -1.6900394070
Al  0.7585650870  5.6343662130  -1.6900394070
Al  3.0623078430  3.7562616840  -6.8226459210
4
scale = 2.15000
Li  0.0000000000  0.0000000000  0.0000000000
Al  5.4937823830  1.9228366975  -1.7302784405
Al  0.7766261605  5.7685177895  -1.7302784405
Al  3.1352199345  3.8456964860  -6.9850898715
4
scale = 2.20000
Li  0.0000000000  0.0000000000  0.0000000000
Al  5.6215447640  1.9675538300  -1.7705174740
Al  0.7946872340  5.9026693660  -1.7705174740
Al  3.2081320260  3.9351312880  -7.1475338220
4
scale = 2.25000
Li  0.0000000000  0.0000000000  0.0000000000
Al  5.7493071450  2.0122709625  -1.8107565075
Al  0.8127483075  6.0368209425  -1.8107565075
Al  3.2810441175  4.0245660900  -7.3099777725
4
scale = 2.30000
Li  0.0000000000  0.0000000000  0.0000000000
Al  5.8770695260  2.0569880950  -1.8509955410
Al  0.8308093810  6.1709725190  -1.8509955410
Al  3.3539562090  4.1140008920  -7.4724217230
4
scale = 2.35000
Li  0.0000000000  0.0000000000  0.0000000000
Al  6.0048319070  2.1017052275  -1.8912345745
Al  0.8488704545  6.3051240955  -1.8912345745
Al  3.4268683005  4.2034356940  -7.6348656735
4
scale = 2.40000
Li  0.0000000000  0.0000000000  0.0000000000
Al  6.1325942880  2.1464223600  -1.9314736080
Al  0.8669315280  6.4392756720  -1.9314736080
Al  3.4997803920  4.2928704960  -7.7973096240
4
scale = 2.45000
Li  0.0000000000  0.0000000000  0.0000000000
Al  6.2603566690  2.1911394925  -1.9717126415
Al  0.8849926015  6.5734272485  -1.9717126415
Al  3.5726924835  4.3823052980  -7.9597535745
