4
scale = 0.75000
Li  0.4856099625  1.7122344750  0.8421198300
Li  1.4533186950  1.0273406850  -0.8360306925
Al  2.4210274350  0.3424468950  0.8421201600
Al  -0.4820987700  2.3971282650  -0.8360310225
4
scale = 0.80000
Li  0.5179839600  1.8263834400  0.8982611520
Li  1.5502066080  1.0958300640  -0.8917660720
Al  2.5824292640  0.3652766880  0.8982615040
Al  -0.5142386880  2.5569368160  -0.8917664240
4
scale = 0.85000
Li  0.5503579575  1.9405324050  0.9544024740
Li  1.6470945210  1.1643194430  -0.9475014515
Al  2.7438310930  0.3881064810  0.9544028480
Al  -0.5463786060  2.7167453670  -0.9475018255
4
scale = 0.90000
Li  0.5827319550  2.0546813700  1.0105437960
Li  1.7439824340  1.2328088220  -1.0032368310
Al  2.9052329220  0.4109362740  1.0105441920
Al  -0.5785185240  2.8765539180  -1.0032372270
4
scale = 0.95000
Li  0.6151059525  2.1688303350  1.0666851180
Li  1.8408703470  1.3012982010  -1.0589722105
Al  3.0666347510  0.4337660670  1.0666855360
Al  -0.6106584420  3.0363624690  -1.0589726285
4
scale = 1.00000
Li  0.6474799500  2.2829793000  1.1228264400
Li  1.9377582600  1.3697875800  -1.1147075900
Al  3.2280365800  0.4565958600  1.1228268800
Al  -0.6427983600  3.1961710200  -1.1147080300
4
scale = 1.05000
Li  0.6798539475  2.3971282650  1.1789677620
Li  2.0346461730  1.4382769590  -1.1704429695
Al  3.3894384090  0.4794256530  1.1789682240
Al  -0.6749382780  3.3559795710  -1.1704434315
4
scale = 1.10000
Li  0.7122279450  2.5112772300  1.2351090840
Li  2.1315340860  1.5067663380  -1.2261783490
Al  3.5508402380  0.5022554460  1.2351095680
Al  -0.7070781960  3.5157881220  -1.2261788330
4
scale = 1.15000
Li  0.7446019425  2.6254261950  1.2912504060
Li  2.2284219990  1.5752557170  -1.2819137285
Al  3.7122420670  0.5250852390  1.2912509120
Al  -0.7392181140  3.6755966730  -1.2819142345
4
scale = 1.20000
Li  0.7769759400  2.7395751600  1.3473917280
Li  2.3253099120  1.6437450960  -1.3376491080
Al  3.8736438960  0.5479150320  1.3473922560
Al  -0.7713580320  3.8354052240  -1.3376496360
4
scale = 1.25000
Li  0.8093499375  2.8537241250  1.4035330500
Li  2.4221978250  1.7122344750  -1.3933844875
Al  4.0350457250  0.5707448250  1.4035336000
Al  -0.8034979500  3.9952137750  -1.3933850375
4
scale = 1.30000
Li  0.8417239350  2.9678730900  1.4596743720
Li  2.5190857380  1.7807238540  -1.4491198670
Al  4.1964475540  0.5935746180  1.4596749440
Al  -0.8356378680  4.1550223260  -1.4491204390
4
scale = 1.35000
Li  0.8740979325  3.0820220550  1.5158156940
Li  2.6159736510  1.8492132330  -1.5048552465
Al  4.3578493830  0.6164044110  1.5158162880
Al  -0.8677777860  4.3148308770  -1.5048558405
4
scale = 1.40000
Li  0.9064719300  3.1961710200  1.5719570160
Li  2.7128615640  1.9177026120  -1.5605906260
Al  4.5192512120  0.6392342040  1.5719576320
Al  -0.8999177040  4.4746394280  -1.5605912420
4
scale = 1.45000
Li  0.9388459275  3.3103199850  1.6280983380
Li  2.8097494770  1.9861919910  -1.6163260055
Al  4.6806530410  0.6620639970  1.6280989760
Al  -0.9320576220  4.6344479790  -1.6163266435
4
scale = 1.50000
Li  0.9712199250  3.4244689500  1.6842396600
Li  2.9066373900  2.0546813700  -1.6720613850
Al  4.8420548700  0.6848937900  1.6842403200
Al  -0.9641975400  4.7942565300  -1.6720620450
4
scale = 1.55000
Li  1.0035939225  3.5386179150  1.7403809820
Li  3.0035253030  2.1231707490  -1.7277967645
Al  5.0034566990  0.7077235830  1.7403816640
Al  -0.9963374580  4.9540650810  -1.7277974465
4
scale = 1.60000
Li  1.0359679200  3.6527668800  1.7965223040
Li  3.1004132160  2.1916601280  -1.7835321440
Al  5.1648585280  0.7305533760  1.7965230080
Al  -1.0284773760  5.1138736320  -1.7835328480
4
scale = 1.65000
Li  1.0683419175  3.7669158450  1.8526636260
Li  3.1973011290  2.2601495070  -1.8392675235
Al  5.3262603570  0.7533831690  1.8526643520
Al  -1.0606172940  5.2736821830  -1.8392682495
4
scale = 1.70000
Li  1.1007159150  3.8810648100  1.9088049480
Li  3.2941890420  2.3286388860  -1.8950029030
Al  5.4876621860  0.7762129620  1.9088056960
Al  -1.0927572120  5.4334907340  -1.8950036510
4
scale = 1.75000
Li  1.1330899125  3.9952137750  1.9649462700
Li  3.3910769550  2.3971282650  -1.9507382825
Al  5.6490640150  0.7990427550  1.9649470400
Al  -1.1248971300  5.5932992850  -1.9507390525
4
scale = 1.80000
Li  1.1654639100  4.1093627400  2.0210875920
Li  3.4879648680  2.4656176440  -2.0064736620
Al  5.8104658440  0.8218725480  2.0210883840
Al  -1.1570370480  5.7531078360  -2.0064744540
4
scale = 1.85000
Li  1.1978379075  4.2235117050  2.0772289140
Li  3.5848527810  2.5341070230  -2.0622090415
Al  5.9718676730  0.8447023410  2.0772297280
Al  -1.1891769660  5.9129163870  -2.0622098555
4
scale = 1.90000
Li  1.2302119050  4.3376606700  2.1333702360
Li  3.6817406940  2.6025964020  -2.1179444210
Al  6.1332695020  0.8675321340  2.1333710720
Al  -1.2213168840  6.0727249380  -2.1179452570
4
scale = 1.95000
Li  1.2625859025  4.4518096350  2.1895115580
Li  3.7786286070  2.6710857810  -2.1736798005
Al  6.2946713310  0.8903619270  2.1895124160
Al  -1.2534568020  6.2325334890  -2.1736806585
4
scale = 2.00000
Li  1.2949599000  4.5659586000  2.2456528800
Li  3.8755165200  2.7395751600  -2.2294151800
Al  6.4560731600  0.9131917200  2.2456537600
Al  -1.2855967200  6.3923420400  -2.2294160600
4
scale = 2.05000
Li  1.3273338975  4.6801075650  2.3017942020
Li  3.9724044330  2.8080645390  -2.2851505595
Al  6.6174749890  0.9360215130  2.3017951040
Al  -1.3177366380  6.5521505910  -2.2851514615
4
scale = 2.10000
Li  1.3597078950  4.7942565300  2.3579355240
Li  4.0692923460  2.8765539180  -2.3408859390
Al  6.7788768180  0.9588513060  2.3579364480
Al  -1.3498765560  6.7119591420  -2.3408868630
4
scale = 2.15000
Li  1.3920818925  4.9084054950  2.4140768460
Li  4.1661802590  2.9450432970  -2.3966213185
Al  6.9402786470  0.9816810990  2.4140777920
Al  -1.3820164740  6.8717676930  -2.3966222645
4
scale = 2.20000
Li  1.4244558900  5.0225544600  2.4702181680
Li  4.2630681720  3.0135326760  -2.4523566980
Al  7.1016804760  1.0045108920  2.4702191360
Al  -1.4141563920  7.0315762440  -2.4523576660
4
scale = 2.25000
Li  1.4568298875  5.1367034250  2.5263594900
Li  4.3599560850  3.0820220550  -2.5080920775
Al  7.2630823050  1.0273406850  2.5263604800
Al  -1.4462963100  7.1913847950  -2.5080930675
4
scale = 2.30000
Li  1.4892038850  5.2508523900  2.5825008120
Li  4.4568439980  3.1505114340  -2.5638274570
Al  7.4244841340  1.0501704780  2.5825018240
Al  -1.4784362280  7.3511933460  -2.5638284690
4
scale = 2.35000
Li  1.5215778825  5.3650013550  2.6386421340
Li  4.5537319110  3.2190008130  -2.6195628365
Al  7.5858859630  1.0730002710  2.6386431680
Al  -1.5105761460  7.5110018970  -2.6195638705
4
scale = 2.40000
Li  1.5539518800  5.4791503200  2.6947834560
Li  4.6506198240  3.2874901920  -2.6752982160
Al  7.7472877920  1.0958300640  2.6947845120
Al  -1.5427160640  7.6708104480  -2.6752992720
4
scale = 2.45000
Li  1.5863258775  5.5932992850  2.7509247780
Li  4.7475077370  3.3559795710  -2.7310335955
Al  7.9086896210  1.1186598570  2.7509258560
Al  -1.5748559820  7.8306189990  -2.7310346735
