8
scale = 0.75000
Li  -0.0000001950  1.8235213350  1.8246695625
Li  1.5792158025  0.9117606675  5.4740086875
As  -0.0000001950  1.8235213350  4.1735229000
As  1.5792158025  0.9117606675  3.1251553500
As  1.5792158025  0.9117606675  0.5241837750
As  -0.0000001950  1.8235213350  6.7744944750
As  0.0000000000  0.0000000000  1.8246695625
As  0.0000000000  0.0000000000  5.4740086875
8
scale = 0.80000
Li  -0.0000002080  1.9450894240  1.9463142000
Li  1.6844968560  0.9725447120  5.8389426000
As  -0.0000002080  1.9450894240  4.4517577600
As  1.6844968560  0.9725447120  3.3334990400
As  1.6844968560  0.9725447120  0.5591293600
As  -0.0000002080  1.9450894240  7.2261274400
As  0.0000000000  0.0000000000  1.9463142000
As  0.0000000000  0.0000000000  5.8389426000
8
scale = 0.85000
Li  -0.0000002210  2.0666575130  2.0679588375
Li  1.7897779095  1.0333287565  6.2038765125
As  -0.0000002210  2.0666575130  4.7299926200
As  1.7897779095  1.0333287565  3.5418427300
As  1.7897779095  1.0333287565  0.5940749450
As  -0.0000002210  2.0666575130  7.6777604050
As  0.0000000000  0.0000000000  2.0679588375
As  0.0000000000  0.0000000000  6.2038765125
8
scale = 0.90000
Li  -0.0000002340  2.1882256020  2.1896034750
Li  1.8950589630  1.0941128010  6.5688104250
As  -0.0000002340  2.1882256020  5.0082274800
As  1.8950589630  1.0941128010  3.7501864200
As  1.8950589630  1.0941128010  0.6290205300
As  -0.0000002340  2.1882256020  8.1293933700
As  0.0000000000  0.0000000000  2.1896034750
As  0.0000000000  0.0000000000  6.5688104250
8
scale = 0.95000
Li  -0.0000002470  2.3097936910  2.3112481125
Li  2.0003400165  1.1548968455  6.9337443375
As  -0.0000002470  2.3097936910  5.2864623400
As  2.0003400165  1.1548968455  3.9585301100
As  2.0003400165  1.1548968455  0.6639661150
As  -0.0000002470  2.3097936910  8.5810263350
As  0.0000000000  0.0000000000  2.3112481125
As  0.0000000000  0.0000000000  6.9337443375
8
scale = 1.00000
Li  -0.0000002600  2.4313617800  2.4328927500
Li  2.1056210700  1.2156808900  7.2986782500
As  -0.0000002600  2.4313617800  5.5646972000
As  2.1056210700  1.2156808900  4.1668738000
As  2.1056210700  1.2156808900  0.6989117000
As  -0.0000002600  2.4313617800  9.0326593000
As  0.0000000000  0.0000000000  2.4328927500
As  0.0000000000  0.0000000000  7.2986782500
8
scale = 1.05000
Li  -0.0000002730  2.5529298690  2.5545373875
Li  2.2109021235  1.2764649345  7.6636121625
As  -0.0000002730  2.5529298690  5.8429320600
As  2.2109021235  1.2764649345  4.3752174900
As  2.2109021235  1.2764649345  0.7338572850
As  -0.0000002730  2.5529298690  9.4842922650
As  0.0000000000  0.0000000000  2.5545373875
As  0.0000000000  0.0000000000  7.6636121625
8
scale = 1.10000
Li  -0.0000002860  2.6744979580  2.6761820250
Li  2.3161831770  1.3372489790  8.0285460750
As  -0.0000002860  2.6744979580  6.1211669200
As  2.3161831770  1.3372489790  4.5835611800
As  2.3161831770  1.3372489790  0.7688028700
As  -0.0000002860  2.6744979580  9.9359252300
As  0.0000000000  0.0000000000  2.6761820250
As  0.0000000000  0.0000000000  8.0285460750
8
scale = 1.15000
Li  -0.0000002990  2.7960660470  2.7978266625
Li  2.4214642305  1.3980330235  8.3934799875
As  -0.0000002990  2.7960660470  6.3994017800
As  2.4214642305  1.3980330235  4.7919048700
As  2.4214642305  1.3980330235  0.8037484550
As  -0.0000002990  2.7960660470  10.3875581950
As  0.0000000000  0.0000000000  2.7978266625
As  0.0000000000  0.0000000000  8.3934799875
8
scale = 1.20000
Li  -0.0000003120  2.9176341360  2.9194713000
Li  2.5267452840  1.4588170680  8.7584139000
As  -0.0000003120  2.9176341360  6.6776366400
As  2.5267452840  1.4588170680  5.0002485600
As  2.5267452840  1.4588170680  0.8386940400
As  -0.0000003120  2.9176341360  10.8391911600
As  0.0000000000  0.0000000000  2.9194713000
As  0.0000000000  0.0000000000  8.7584139000
8
scale = 1.25000
Li  -0.0000003250  3.0392022250  3.0411159375
Li  2.6320263375  1.5196011125  9.1233478125
As  -0.0000003250  3.0392022250  6.9558715000
As  2.6320263375  1.5196011125  5.2085922500
As  2.6320263375  1.5196011125  0.8736396250
As  -0.0000003250  3.0392022250  11.2908241250
As  0.0000000000  0.0000000000  3.0411159375
As  0.0000000000  0.0000000000  9.1233478125
8
scale = 1.30000
Li  -0.0000003380  3.1607703140  3.1627605750
Li  2.7373073910  1.5803851570  9.4882817250
As  -0.0000003380  3.1607703140  7.2341063600
As  2.7373073910  1.5803851570  5.4169359400
As  2.7373073910  1.5803851570  0.9085852100
As  -0.0000003380  3.1607703140  11.7424570900
As  0.0000000000  0.0000000000  3.1627605750
As  0.0000000000  0.0000000000  9.4882817250
8
scale = 1.35000
Li  -0.0000003510  3.2823384030  3.2844052125
Li  2.8425884445  1.6411692015  9.8532156375
As  -0.0000003510  3.2823384030  7.5123412200
As  2.8425884445  1.6411692015  5.6252796300
As  2.8425884445  1.6411692015  0.9435307950
As  -0.0000003510  3.2823384030  12.1940900550
As  0.0000000000  0.0000000000  3.2844052125
As  0.0000000000  0.0000000000  9.8532156375
8
scale = 1.40000
Li  -0.0000003640  3.4039064920  3.4060498500
Li  2.9478694980  1.7019532460  10.2181495500
As  -0.0000003640  3.4039064920  7.7905760800
As  2.9478694980  1.7019532460  5.8336233200
As  2.9478694980  1.7019532460  0.9784763800
As  -0.0000003640  3.4039064920  12.6457230200
As  0.0000000000  0.0000000000  3.4060498500
As  0.0000000000  0.0000000000  10.2181495500
8
scale = 1.45000
Li  -0.0000003770  3.5254745810  3.5276944875
Li  3.0531505515  1.7627372905  10.5830834625
As  -0.0000003770  3.5254745810  8.0688109400
As  3.0531505515  1.7627372905  6.0419670100
As  3.0531505515  1.7627372905  1.0134219650
As  -0.0000003770  3.5254745810  13.0973559850
As  0.0000000000  0.0000000000  3.5276944875
As  0.0000000000  0.0000000000  10.5830834625
8
scale = 1.50000
Li  -0.0000003900  3.6470426700  3.6493391250
Li  3.1584316050  1.8235213350  10.9480173750
As  -0.0000003900  3.6470426700  8.3470458000
As  3.1584316050  1.8235213350  6.2503107000
As  3.1584316050  1.8235213350  1.0483675500
As  -0.0000003900  3.6470426700  13.5489889500
As  0.0000000000  0.0000000000  3.6493391250
As  0.0000000000  0.0000000000  10.9480173750
8
scale = 1.55000
Li  -0.0000004030  3.7686107590  3.7709837625
Li  3.2637126585  1.8843053795  11.3129512875
As  -0.0000004030  3.7686107590  8.6252806600
As  3.2637126585  1.8843053795  6.4586543900
As  3.2637126585  1.8843053795  1.0833131350
As  -0.0000004030  3.7686107590  14.0006219150
As  0.0000000000  0.0000000000  3.7709837625
As  0.0000000000  0.0000000000  11.3129512875
8
scale = 1.60000
Li  -0.0000004160  3.8901788480  3.8926284000
Li  3.3689937120  1.9450894240  11.6778852000
As  -0.0000004160  3.8901788480  8.9035155200
As  3.3689937120  1.9450894240  6.6669980800
As  3.3689937120  1.9450894240  1.1182587200
As  -0.0000004160  3.8901788480  14.4522548800
As  0.0000000000  0.0000000000  3.8926284000
As  0.0000000000  0.0000000000  11.6778852000
8
scale = 1.65000
Li  -0.0000004290  4.0117469370  4.0142730375
Li  3.4742747655  2.0058734685  12.0428191125
As  -0.0000004290  4.0117469370  9.1817503800
As  3.4742747655  2.0058734685  6.8753417700
As  3.4742747655  2.0058734685  1.1532043050
As  -0.0000004290  4.0117469370  14.9038878450
As  0.0000000000  0.0000000000  4.0142730375
As  0.0000000000  0.0000000000  12.0428191125
8
scale = 1.70000
Li  -0.0000004420  4.1333150260  4.1359176750
Li  3.5795558190  2.0666575130  12.4077530250
As  -0.0000004420  4.1333150260  9.4599852400
As  3.5795558190  2.0666575130  7.0836854600
As  3.5795558190  2.0666575130  1.1881498900
As  -0.0000004420  4.1333150260  15.3555208100
As  0.0000000000  0.0000000000  4.1359176750
As  0.0000000000  0.0000000000  12.4077530250
8
scale = 1.75000
Li  -0.0000004550  4.2548831150  4.2575623125
Li  3.6848368725  2.1274415575  12.7726869375
As  -0.0000004550  4.2548831150  9.7382201000
As  3.6848368725  2.1274415575  7.2920291500
As  3.6848368725  2.1274415575  1.2230954750
As  -0.0000004550  4.2548831150  15.8071537750
As  0.0000000000  0.0000000000  4.2575623125
As  0.0000000000  0.0000000000  12.7726869375
8
scale = 1.80000
Li  -0.0000004680  4.3764512040  4.3792069500
Li  3.7901179260  2.1882256020  13.1376208500
As  -0.0000004680  4.3764512040  10.0164549600
As  3.7901179260  2.1882256020  7.5003728400
As  3.7901179260  2.1882256020  1.2580410600
As  -0.0000004680  4.3764512040  16.2587867400
As  0.0000000000  0.0000000000  4.3792069500
As  0.0000000000  0.0000000000  13.1376208500
8
scale = 1.85000
Li  -0.0000004810  4.4980192930  4.5008515875
Li  3.8953989795  2.2490096465  13.5025547625
As  -0.0000004810  4.4980192930  10.2946898200
As  3.8953989795  2.2490096465  7.7087165300
As  3.8953989795  2.2490096465  1.2929866450
As  -0.0000004810  4.4980192930  16.7104197050
As  0.0000000000  0.0000000000  4.5008515875
As  0.0000000000  0.0000000000  13.5025547625
8
scale = 1.90000
Li  -0.0000004940  4.6195873820  4.6224962250
Li  4.0006800330  2.3097936910  13.8674886750
As  -0.0000004940  4.6195873820  10.5729246800
As  4.0006800330  2.3097936910  7.9170602200
As  4.0006800330  2.3097936910  1.3279322300
As  -0.0000004940  4.6195873820  17.1620526700
As  0.0000000000  0.0000000000  4.6224962250
As  0.0000000000  0.0000000000  13.8674886750
8
scale = 1.95000
Li  -0.0000005070  4.7411554710  4.7441408625
Li  4.1059610865  2.3705777355  14.2324225875
As  -0.0000005070  4.7411554710  10.8511595400
As  4.1059610865  2.3705777355  8.1254039100
As  4.1059610865  2.3705777355  1.3628778150
As  -0.0000005070  4.7411554710  17.6136856350
As  0.0000000000  0.0000000000  4.7441408625
As  0.0000000000  0.0000000000  14.2324225875
8
scale = 2.00000
Li  -0.0000005200  4.8627235600  4.8657855000
Li  4.2112421400  2.4313617800  14.5973565000
As  -0.0000005200  4.8627235600  11.1293944000
As  4.2112421400  2.4313617800  8.3337476000
As  4.2112421400  2.4313617800  1.3978234000
As  -0.0000005200  4.8627235600  18.0653186000
As  0.0000000000  0.0000000000  4.8657855000
As  0.0000000000  0.0000000000  14.5973565000
8
scale = 2.05000
Li  -0.0000005330  4.9842916490  4.9874301375
Li  4.3165231935  2.4921458245  14.9622904125
As  -0.0000005330  4.9842916490  11.4076292600
As  4.3165231935  2.4921458245  8.5420912900
As  4.3165231935  2.4921458245  1.4327689850
As  -0.0000005330  4.9842916490  18.5169515650
As  0.0000000000  0.0000000000  4.9874301375
As  0.0000000000  0.0000000000  14.9622904125
8
scale = 2.10000
Li  -0.0000005460  5.1058597380  5.1090747750
Li  4.4218042470  2.5529298690  15.3272243250
As  -0.0000005460  5.1058597380  11.6858641200
As  4.4218042470  2.5529298690  8.7504349800
As  4.4218042470  2.5529298690  1.4677145700
As  -0.0000005460  5.1058597380  18.9685845300
As  0.0000000000  0.0000000000  5.1090747750
As  0.0000000000  0.0000000000  15.3272243250
8
scale = 2.15000
Li  -0.0000005590  5.2274278270  5.2307194125
Li  4.5270853005  2.6137139135  15.6921582375
As  -0.0000005590  5.2274278270  11.9640989800
As  4.5270853005  2.6137139135  8.9587786700
As  4.5270853005  2.6137139135  1.5026601550
As  -0.0000005590  5.2274278270  19.4202174950
As  0.0000000000  0.0000000000  5.2307194125
As  0.0000000000  0.0000000000  15.6921582375
8
scale = 2.20000
Li  -0.0000005720  5.3489959160  5.3523640500
Li  4.6323663540  2.6744979580  16.0570921500
As  -0.0000005720  5.3489959160  12.2423338400
As  4.6323663540  2.6744979580  9.1671223600
As  4.6323663540  2.6744979580  1.5376057400
As  -0.0000005720  5.3489959160  19.8718504600
As  0.0000000000  0.0000000000  5.3523640500
As  0.0000000000  0.0000000000  16.0570921500
8
scale = 2.25000
Li  -0.0000005850  5.4705640050  5.4740086875
Li  4.7376474075  2.7352820025  16.4220260625
As  -0.0000005850  5.4705640050  12.5205687000
As  4.7376474075  2.7352820025  9.3754660500
As  4.7376474075  2.7352820025  1.5725513250
As  -0.0000005850  5.4705640050  20.3234834250
As  0.0000000000  0.0000000000  5.4740086875
As  0.0000000000  0.0000000000  16.4220260625
8
scale = 2.30000
Li  -0.0000005980  5.5921320940  5.5956533250
Li  4.8429284610  2.7960660470  16.7869599750
As  -0.0000005980  5.5921320940  12.7988035600
As  4.8429284610  2.7960660470  9.5838097400
As  4.8429284610  2.7960660470  1.6074969100
As  -0.0000005980  5.5921320940  20.7751163900
As  0.0000000000  0.0000000000  5.5956533250
As  0.0000000000  0.0000000000  16.7869599750
8
scale = 2.35000
Li  -0.0000006110  5.7137001830  5.7172979625
Li  4.9482095145  2.8568500915  17.1518938875
As  -0.0000006110  5.7137001830  13.0770384200
As  4.9482095145  2.8568500915  9.7921534300
As  4.9482095145  2.8568500915  1.6424424950
As  -0.0000006110  5.7137001830  21.2267493550
As  0.0000000000  0.0000000000  5.7172979625
As  0.0000000000  0.0000000000  17.1518938875
8
scale = 2.40000
Li  -0.0000006240  5.8352682720  5.8389426000
Li  5.0534905680  2.9176341360  17.5168278000
As  -0.0000006240  5.8352682720  13.3552732800
As  5.0534905680  2.9176341360  10.0004971200
As  5.0534905680  2.9176341360  1.6773880800
As  -0.0000006240  5.8352682720  21.6783823200
As  0.0000000000  0.0000000000  5.8389426000
As  0.0000000000  0.0000000000  17.5168278000
8
scale = 2.45000
Li  -0.0000006370  5.9568363610  5.9605872375
Li  5.1587716215  2.9784181805  17.8817617125
As  -0.0000006370  5.9568363610  13.6335081400
As  5.1587716215  2.9784181805  10.2088408100
As  5.1587716215  2.9784181805  1.7123336650
As  -0.0000006370  5.9568363610  22.1300152850
As  0.0000000000  0.0000000000  5.9605872375
As  0.0000000000  0.0000000000  17.8817617125
