16
scale = 0.75000
Li  3.2532190425  1.3933853025  3.8210955075
Li  1.3000973400  0.7802125650  6.7161312150
Li  0.6530243625  2.9538104250  2.9737680300
Li  2.6061460650  3.5669831625  0.0787323150
Li  0.3248037075  2.5947894375  5.7098100675
Li  2.2779254100  3.9260041500  4.4824852350
Li  3.5814396975  1.7524062825  1.0850534700
Li  1.6283179950  0.4211915775  2.3123783025
As  1.3025177250  1.3555328775  4.1815934625
As  3.2556394275  0.8180649825  6.3556332600
As  2.6037256800  2.9916628500  2.6132700675
As  0.6506039775  3.5291307375  0.4392302775
As  2.2552717800  2.1588724725  5.5438275225
As  0.3021500775  0.0147253875  4.9933992000
As  1.6509716250  2.1883232475  1.2510360075
As  3.6040933275  4.3324703400  1.8014643375
16
scale = 0.80000
Li  3.4701003120  1.4862776560  4.0758352080
Li  1.3867704960  0.8322267360  7.1638732960
Li  0.6965593200  3.1507311200  3.1720192320
Li  2.7798891360  3.8047820400  0.0839811360
Li  0.3464572880  2.7677754000  6.0904640720
Li  2.4297871040  4.1877377600  4.7813175840
Li  3.8202023440  1.8692333680  1.1573903680
Li  1.7368725280  0.4492710160  2.4665368560
As  1.3893522400  1.4459017360  4.4603663600
As  3.4726820560  0.8726026480  6.7793421440
As  2.7773073920  3.1911070400  2.7874880720
As  0.6939775760  3.7644061200  0.4685122960
As  2.4056232320  2.3027973040  5.9134160240
As  0.3222934160  0.0157070800  5.3262924800
As  1.7610364000  2.3342114640  1.3344384080
As  3.8443662160  4.6213016960  1.9215619600
16
scale = 0.85000
Li  3.6869815815  1.5791700095  4.3305749085
Li  1.4734436520  0.8842409070  7.6116153770
Li  0.7400942775  3.3476518150  3.3702704340
Li  2.9536322070  4.0425809175  0.0892299570
Li  0.3681108685  2.9407613625  6.4711180765
Li  2.5816487980  4.4494713700  5.0801499330
Li  4.0589649905  1.9860604535  1.2297272660
Li  1.8454270610  0.4773504545  2.6206954095
As  1.4761867550  1.5362705945  4.7391392575
As  3.6897246845  0.9271403135  7.2030510280
As  2.9508891040  3.3905512300  2.9617060765
As  0.7373511745  3.9996815025  0.4977943145
As  2.5559746840  2.4467221355  6.2830045255
As  0.3424367545  0.0166887725  5.6591857600
As  1.8711011750  2.4800996805  1.4178408085
As  4.0846391045  4.9101330520  2.0416595825
16
scale = 0.90000
Li  3.9038628510  1.6720623630  4.5853146090
Li  1.5601168080  0.9362550780  8.0593574580
Li  0.7836292350  3.5445725100  3.5685216360
Li  3.1273752780  4.2803797950  0.0944787780
Li  0.3897644490  3.1137473250  6.8517720810
Li  2.7335104920  4.7112049800  5.3789822820
Li  4.2977276370  2.1028875390  1.3020641640
Li  1.9539815940  0.5054298930  2.7748539630
As  1.5630212700  1.6266394530  5.0179121550
As  3.9067673130  0.9816779790  7.6267599120
As  3.1244708160  3.5899954200  3.1359240810
As  0.7807247730  4.2349568850  0.5270763330
As  2.7063261360  2.5906469670  6.6525930270
As  0.3625800930  0.0176704650  5.9920790400
As  1.9811659500  2.6259878970  1.5012432090
As  4.3249119930  5.1989644080  2.1617572050
16
scale = 0.95000
Li  4.1207441205  1.7649547165  4.8400543095
Li  1.6467899640  0.9882692490  8.5070995390
Li  0.8271641925  3.7414932050  3.7667728380
Li  3.3011183490  4.5181786725  0.0997275990
Li  0.4114180295  3.2867332875  7.2324260855
Li  2.8853721860  4.9729385900  5.6778146310
Li  4.5364902835  2.2197146245  1.3744010620
Li  2.0625361270  0.5335093315  2.9290125165
As  1.6498557850  1.7170083115  5.2966850525
As  4.1238099415  1.0362156445  8.0504687960
As  3.2980525280  3.7894396100  3.3101420855
As  0.8240983715  4.4702322675  0.5563583515
As  2.8566775880  2.7345717985  7.0221815285
As  0.3827234315  0.0186521575  6.3249723200
As  2.0912307250  2.7718761135  1.5846456095
As  4.5651848815  5.4877957640  2.2818548275
16
scale = 1.00000
Li  4.3376253900  1.8578470700  5.0947940100
Li  1.7334631200  1.0402834200  8.9548416200
Li  0.8706991500  3.9384139000  3.9650240400
Li  3.4748614200  4.7559775500  0.1049764200
Li  0.4330716100  3.4597192500  7.6130800900
Li  3.0372338800  5.2346722000  5.9766469800
Li  4.7752529300  2.3365417100  1.4467379600
Li  2.1710906600  0.5615887700  3.0831710700
As  1.7366903000  1.8073771700  5.5754579500
As  4.3408525700  1.0907533100  8.4741776800
As  3.4716342400  3.9888838000  3.4843600900
As  0.8674719700  4.7055076500  0.5856403700
As  3.0070290400  2.8784966300  7.3917700300
As  0.4028667700  0.0196338500  6.6578656000
As  2.2012955000  2.9177643300  1.6680480100
As  4.8054577700  5.7766271200  2.4019524500
16
scale = 1.05000
Li  4.5545066595  1.9507394235  5.3495337105
Li  1.8201362760  1.0922975910  9.4025837010
Li  0.9142341075  4.1353345950  4.1632752420
Li  3.6486044910  4.9937764275  0.1102252410
Li  0.4547251905  3.6327052125  7.9937340945
Li  3.1890955740  5.4964058100  6.2754793290
Li  5.0140155765  2.4533687955  1.5190748580
Li  2.2796451930  0.5896682085  3.2373296235
As  1.8235248150  1.8977460285  5.8542308475
As  4.5578951985  1.1452909755  8.8978865640
As  3.6452159520  4.1883279900  3.6585780945
As  0.9108455685  4.9407830325  0.6149223885
As  3.1573804920  3.0224214615  7.7613585315
As  0.4230101085  0.0206155425  6.9907588800
As  2.3113602750  3.0636525465  1.7514504105
As  5.0457306585  6.0654584760  2.5220500725
16
scale = 1.10000
Li  4.7713879290  2.0436317770  5.6042734110
Li  1.9068094320  1.1443117620  9.8503257820
Li  0.9577690650  4.3322552900  4.3615264440
Li  3.8223475620  5.2315753050  0.1154740620
Li  0.4763787710  3.8056911750  8.3743880990
Li  3.3409572680  5.7581394200  6.5743116780
Li  5.2527782230  2.5701958810  1.5914117560
Li  2.3881997260  0.6177476470  3.3914881770
As  1.9103593300  1.9881148870  6.1330037450
As  4.7749378270  1.1998286410  9.3215954480
As  3.8187976640  4.3877721800  3.8327960990
As  0.9542191670  5.1760584150  0.6442044070
As  3.3077319440  3.1663462930  8.1309470330
As  0.4431534470  0.0215972350  7.3236521600
As  2.4214250500  3.2095407630  1.8348528110
As  5.2860035470  6.3542898320  2.6421476950
16
scale = 1.15000
Li  4.9882691985  2.1365241305  5.8590131115
Li  1.9934825880  1.1963259330  10.2980678630
Li  1.0013040225  4.5291759850  4.5597776460
Li  3.9960906330  5.4693741825  0.1207228830
Li  0.4980323515  3.9786771375  8.7550421035
Li  3.4928189620  6.0198730300  6.8731440270
Li  5.4915408695  2.6870229665  1.6637486540
Li  2.4967542590  0.6458270855  3.5456467305
As  1.9971938450  2.0784837455  6.4117766425
As  4.9919804555  1.2543663065  9.7453043320
As  3.9923793760  4.5872163700  4.0070141035
As  0.9975927655  5.4113337975  0.6734864255
As  3.4580833960  3.3102711245  8.5005355345
As  0.4632967855  0.0225789275  7.6565454400
As  2.5314898250  3.3554289795  1.9182552115
As  5.5262764355  6.6431211880  2.7622453175
16
scale = 1.20000
Li  5.2051504680  2.2294164840  6.1137528120
Li  2.0801557440  1.2483401040  10.7458099440
Li  1.0448389800  4.7260966800  4.7580288480
Li  4.1698337040  5.7071730600  0.1259717040
Li  0.5196859320  4.1516631000  9.1356961080
Li  3.6446806560  6.2816066400  7.1719763760
Li  5.7303035160  2.8038500520  1.7360855520
Li  2.6053087920  0.6739065240  3.6998052840
As  2.0840283600  2.1688526040  6.6905495400
As  5.2090230840  1.3089039720  10.1690132160
As  4.1659610880  4.7866605600  4.1812321080
As  1.0409663640  5.6466091800  0.7027684440
As  3.6084348480  3.4541959560  8.8701240360
As  0.4834401240  0.0235606200  7.9894387200
As  2.6415546000  3.5013171960  2.0016576120
As  5.7665493240  6.9319525440  2.8823429400
16
scale = 1.25000
Li  5.4220317375  2.3223088375  6.3684925125
Li  2.1668289000  1.3003542750  11.1935520250
Li  1.0883739375  4.9230173750  4.9562800500
Li  4.3435767750  5.9449719375  0.1312205250
Li  0.5413395125  4.3246490625  9.5163501125
Li  3.7965423500  6.5433402500  7.4708087250
Li  5.9690661625  2.9206771375  1.8084224500
Li  2.7138633250  0.7019859625  3.8539638375
As  2.1708628750  2.2592214625  6.9693224375
As  5.4260657125  1.3634416375  10.5927221000
As  4.3395428000  4.9861047500  4.3554501125
As  1.0843399625  5.8818845625  0.7320504625
As  3.7587863000  3.5981207875  9.2397125375
As  0.5035834625  0.0245423125  8.3223320000
As  2.7516193750  3.6472054125  2.0850600125
As  6.0068222125  7.2207839000  3.0024405625
16
scale = 1.30000
Li  5.6389130070  2.4152011910  6.6232322130
Li  2.2535020560  1.3523684460  11.6412941060
Li  1.1319088950  5.1199380700  5.1545312520
Li  4.5173198460  6.1827708150  0.1364693460
Li  0.5629930930  4.4976350250  9.8970041170
Li  3.9484040440  6.8050738600  7.7696410740
Li  6.2078288090  3.0375042230  1.8807593480
Li  2.8224178580  0.7300654010  4.0081223910
As  2.2576973900  2.3495903210  7.2480953350
As  5.6431083410  1.4179793030  11.0164309840
As  4.5131245120  5.1855489400  4.5296681170
As  1.1277135610  6.1171599450  0.7613324810
As  3.9091377520  3.7420456190  9.6093010390
As  0.5237268010  0.0255240050  8.6552252800
As  2.8616841500  3.7930936290  2.1684624130
As  6.2470951010  7.5096152560  3.1225381850
16
scale = 1.35000
Li  5.8557942765  2.5080935445  6.8779719135
Li  2.3401752120  1.4043826170  12.0890361870
Li  1.1754438525  5.3168587650  5.3527824540
Li  4.6910629170  6.4205696925  0.1417181670
Li  0.5846466735  4.6706209875  10.2776581215
Li  4.1002657380  7.0668074700  8.0684734230
Li  6.4465914555  3.1543313085  1.9530962460
Li  2.9309723910  0.7581448395  4.1622809445
As  2.3445319050  2.4399591795  7.5268682325
As  5.8601509695  1.4725169685  11.4401398680
As  4.6867062240  5.3849931300  4.7038861215
As  1.1710871595  6.3524353275  0.7906144995
As  4.0594892040  3.8859704505  9.9788895405
As  0.5438701395  0.0265056975  8.9881185600
As  2.9717489250  3.9389818455  2.2518648135
As  6.4873679895  7.7984466120  3.2426358075
16
scale = 1.40000
Li  6.0726755460  2.6009858980  7.1327116140
Li  2.4268483680  1.4563967880  12.5367782680
Li  1.2189788100  5.5137794600  5.5510336560
Li  4.8648059880  6.6583685700  0.1469669880
Li  0.6063002540  4.8436069500  10.6583121260
Li  4.2521274320  7.3285410800  8.3673057720
Li  6.6853541020  3.2711583940  2.0254331440
Li  3.0395269240  0.7862242780  4.3164394980
As  2.4313664200  2.5303280380  7.8056411300
As  6.0771935980  1.5270546340  11.8638487520
As  4.8602879360  5.5844373200  4.8781041260
As  1.2144607580  6.5877107100  0.8198965180
As  4.2098406560  4.0298952820  10.3484780420
As  0.5640134780  0.0274873900  9.3210118400
As  3.0818137000  4.0848700620  2.3352672140
As  6.7276408780  8.0872779680  3.3627334300
16
scale = 1.45000
Li  6.2895568155  2.6938782515  7.3874513145
Li  2.5135215240  1.5084109590  12.9845203490
Li  1.2625137675  5.7107001550  5.7492848580
Li  5.0385490590  6.8961674475  0.1522158090
Li  0.6279538345  5.0165929125  11.0389661305
Li  4.4039891260  7.5902746900  8.6661381210
Li  6.9241167485  3.3879854795  2.0977700420
Li  3.1480814570  0.8143037165  4.4705980515
As  2.5182009350  2.6206968965  8.0844140275
As  6.2942362265  1.5815922995  12.2875576360
As  5.0338696480  5.7838815100  5.0523221305
As  1.2578343565  6.8229860925  0.8491785365
As  4.3601921080  4.1738201135  10.7180665435
As  0.5841568165  0.0284690825  9.6539051200
As  3.1918784750  4.2307582785  2.4186696145
As  6.9679137665  8.3761093240  3.4828310525
16
scale = 1.50000
Li  6.5064380850  2.7867706050  7.6421910150
Li  2.6001946800  1.5604251300  13.4322624300
Li  1.3060487250  5.9076208500  5.9475360600
Li  5.2122921300  7.1339663250  0.1574646300
Li  0.6496074150  5.1895788750  11.4196201350
Li  4.5558508200  7.8520083000  8.9649704700
Li  7.1628793950  3.5048125650  2.1701069400
Li  3.2566359900  0.8423831550  4.6247566050
As  2.6050354500  2.7110657550  8.3631869250
As  6.5112788550  1.6361299650  12.7112665200
As  5.2074513600  5.9833257000  5.2265401350
As  1.3012079550  7.0582614750  0.8784605550
As  4.5105435600  4.3177449450  11.0876550450
As  0.6043001550  0.0294507750  9.9867984000
As  3.3019432500  4.3766464950  2.5020720150
As  7.2081866550  8.6649406800  3.6029286750
16
scale = 1.55000
Li  6.7233193545  2.8796629585  7.8969307155
Li  2.6868678360  1.6124393010  13.8800045110
Li  1.3495836825  6.1045415450  6.1457872620
Li  5.3860352010  7.3717652025  0.1627134510
Li  0.6712609955  5.3625648375  11.8002741395
Li  4.7077125140  8.1137419100  9.2638028190
Li  7.4016420415  3.6216396505  2.2424438380
Li  3.3651905230  0.8704625935  4.7789151585
As  2.6918699650  2.8014346135  8.6419598225
As  6.7283214835  1.6906676305  13.1349754040
As  5.3810330720  6.1827698900  5.4007581395
As  1.3445815535  7.2935368575  0.9077425735
As  4.6608950120  4.4616697765  11.4572435465
As  0.6244434935  0.0304324675  10.3196916800
As  3.4120080250  4.5225347115  2.5854744155
As  7.4484595435  8.9537720360  3.7230262975
16
scale = 1.60000
Li  6.9402006240  2.9725553120  8.1516704160
Li  2.7735409920  1.6644534720  14.3277465920
Li  1.3931186400  6.3014622400  6.3440384640
Li  5.5597782720  7.6095640800  0.1679622720
Li  0.6929145760  5.5355508000  12.1809281440
Li  4.8595742080  8.3754755200  9.5626351680
Li  7.6404046880  3.7384667360  2.3147807360
Li  3.4737450560  0.8985420320  4.9330737120
As  2.7787044800  2.8918034720  8.9207327200
As  6.9453641120  1.7452052960  13.5586842880
As  5.5546147840  6.3822140800  5.5749761440
As  1.3879551520  7.5288122400  0.9370245920
As  4.8112464640  4.6055946080  11.8268320480
As  0.6445868320  0.0314141600  10.6525849600
As  3.5220728000  4.6684229280  2.6688768160
As  7.6887324320  9.2426033920  3.8431239200
16
scale = 1.65000
Li  7.1570818935  3.0654476655  8.4064101165
Li  2.8602141480  1.7164676430  14.7754886730
Li  1.4366535975  6.4983829350  6.5422896660
Li  5.7335213430  7.8473629575  0.1732110930
Li  0.7145681565  5.7085367625  12.5615821485
Li  5.0114359020  8.6372091300  9.8614675170
Li  7.8791673345  3.8552938215  2.3871176340
Li  3.5822995890  0.9266214705  5.0872322655
As  2.8655389950  2.9821723305  9.1995056175
As  7.1624067405  1.7997429615  13.9823931720
As  5.7281964960  6.5816582700  5.7491941485
As  1.4313287505  7.7640876225  0.9663066105
As  4.9615979160  4.7495194395  12.1964205495
As  0.6647301705  0.0323958525  10.9854782400
As  3.6321375750  4.8143111445  2.7522792165
As  7.9290053205  9.5314347480  3.9632215425
16
scale = 1.70000
Li  7.3739631630  3.1583400190  8.6611498170
Li  2.9468873040  1.7684818140  15.2232307540
Li  1.4801885550  6.6953036300  6.7405408680
Li  5.9072644140  8.0851618350  0.1784599140
Li  0.7362217370  5.8815227250  12.9422361530
Li  5.1632975960  8.8989427400  10.1602998660
Li  8.1179299810  3.9721209070  2.4594545320
Li  3.6908541220  0.9547009090  5.2413908190
As  2.9523735100  3.0725411890  9.4782785150
As  7.3794493690  1.8542806270  14.4061020560
As  5.9017782080  6.7811024600  5.9234121530
As  1.4747023490  7.9993630050  0.9955886290
As  5.1119493680  4.8934442710  12.5660090510
As  0.6848735090  0.0333775450  11.3183715200
As  3.7422023500  4.9601993610  2.8356816170
As  8.1692782090  9.8202661040  4.0833191650
16
scale = 1.75000
Li  7.5908444325  3.2512323725  8.9158895175
Li  3.0335604600  1.8204959850  15.6709728350
Li  1.5237235125  6.8922243250  6.9387920700
Li  6.0810074850  8.3229607125  0.1837087350
Li  0.7578753175  6.0545086875  13.3228901575
Li  5.3151592900  9.1606763500  10.4591322150
Li  8.3566926275  4.0889479925  2.5317914300
Li  3.7994086550  0.9827803475  5.3955493725
As  3.0392080250  3.1629100475  9.7570514125
As  7.5964919975  1.9088182925  14.8298109400
As  6.0753599200  6.9805466500  6.0976301575
As  1.5180759475  8.2346383875  1.0248706475
As  5.2623008200  5.0373691025  12.9355975525
As  0.7050168475  0.0343592375  11.6512648000
As  3.8522671250  5.1060875775  2.9190840175
As  8.4095510975  10.1090974600  4.2034167875
16
scale = 1.80000
Li  7.8077257020  3.3441247260  9.1706292180
Li  3.1202336160  1.8725101560  16.1187149160
Li  1.5672584700  7.0891450200  7.1370432720
Li  6.2547505560  8.5607595900  0.1889575560
Li  0.7795288980  6.2274946500  13.7035441620
Li  5.4670209840  9.4224099600  10.7579645640
Li  8.5954552740  4.2057750780  2.6041283280
Li  3.9079631880  1.0108597860  5.5497079260
As  3.1260425400  3.2532789060  10.0358243100
As  7.8135346260  1.9633559580  15.2535198240
As  6.2489416320  7.1799908400  6.2718481620
As  1.5614495460  8.4699137700  1.0541526660
As  5.4126522720  5.1812939340  13.3051860540
As  0.7251601860  0.0353409300  11.9841580800
As  3.9623319000  5.2519757940  3.0024864180
As  8.6498239860  10.3979288160  4.3235144100
16
scale = 1.85000
Li  8.0246069715  3.4370170795  9.4253689185
Li  3.2069067720  1.9245243270  16.5664569970
Li  1.6107934275  7.2860657150  7.3352944740
Li  6.4284936270  8.7985584675  0.1942063770
Li  0.8011824785  6.4004806125  14.0841981665
Li  5.6188826780  9.6841435700  11.0567969130
Li  8.8342179205  4.3226021635  2.6764652260
Li  4.0165177210  1.0389392245  5.7038664795
As  3.2128770550  3.3436477645  10.3145972075
As  8.0305772545  2.0178936235  15.6772287080
As  6.4225233440  7.3794350300  6.4460661665
As  1.6048231445  8.7051891525  1.0834346845
As  5.5630037240  5.3252187655  13.6747745555
As  0.7453035245  0.0363226225  12.3170513600
As  4.0723966750  5.3978640105  3.0858888185
As  8.8900968745  10.6867601720  4.4436120325
16
scale = 1.90000
Li  8.2414882410  3.5299094330  9.6801086190
Li  3.2935799280  1.9765384980  17.0141990780
Li  1.6543283850  7.4829864100  7.5335456760
Li  6.6022366980  9.0363573450  0.1994551980
Li  0.8228360590  6.5734665750  14.4648521710
Li  5.7707443720  9.9458771800  11.3556292620
Li  9.0729805670  4.4394292490  2.7488021240
Li  4.1250722540  1.0670186630  5.8580250330
As  3.2997115700  3.4340166230  10.5933701050
As  8.2476198830  2.0724312890  16.1009375920
As  6.5961050560  7.5788792200  6.6202841710
As  1.6481967430  8.9404645350  1.1127167030
As  5.7133551760  5.4691435970  14.0443630570
As  0.7654468630  0.0373043150  12.6499446400
As  4.1824614500  5.5437522270  3.1692912190
As  9.1303697630  10.9755915280  4.5637096550
16
scale = 1.95000
Li  8.4583695105  3.6228017865  9.9348483195
Li  3.3802530840  2.0285526690  17.4619411590
Li  1.6978633425  7.6799071050  7.7317968780
Li  6.7759797690  9.2741562225  0.2047040190
Li  0.8444896395  6.7464525375  14.8455061755
Li  5.9226060660  10.2076107900  11.6544616110
Li  9.3117432135  4.5562563345  2.8211390220
Li  4.2336267870  1.0950981015  6.0121835865
As  3.3865460850  3.5243854815  10.8721430025
As  8.4646625115  2.1269689545  16.5246464760
As  6.7696867680  7.7783234100  6.7945021755
As  1.6915703415  9.1757399175  1.1419987215
As  5.8637066280  5.6130684285  14.4139515585
As  0.7855902015  0.0382860075  12.9828379200
As  4.2925262250  5.6896404435  3.2526936195
As  9.3706426515  11.2644228840  4.6838072775
16
scale = 2.00000
Li  8.6752507800  3.7156941400  10.1895880200
Li  3.4669262400  2.0805668400  17.9096832400
Li  1.7413983000  7.8768278000  7.9300480800
Li  6.9497228400  9.5119551000  0.2099528400
Li  0.8661432200  6.9194385000  15.2261601800
Li  6.0744677600  10.4693444000  11.9532939600
Li  9.5505058600  4.6730834200  2.8934759200
Li  4.3421813200  1.1231775400  6.1663421400
As  3.4733806000  3.6147543400  11.1509159000
As  8.6817051400  2.1815066200  16.9483553600
As  6.9432684800  7.9777676000  6.9687201800
As  1.7349439400  9.4110153000  1.1712807400
As  6.0140580800  5.7569932600  14.7835400600
As  0.8057335400  0.0392677000  13.3157312000
As  4.4025910000  5.8355286600  3.3360960200
As  9.6109155400  11.5532542400  4.8039049000
16
scale = 2.05000
Li  8.8921320495  3.8085864935  10.4443277205
Li  3.5535993960  2.1325810110  18.3574253210
Li  1.7849332575  8.0737484950  8.1282992820
Li  7.1234659110  9.7497539775  0.2152016610
Li  0.8877968005  7.0924244625  15.6068141845
Li  6.2263294540  10.7310780100  12.2521263090
Li  9.7892685065  4.7899105055  2.9658128180
Li  4.4507358530  1.1512569785  6.3205006935
As  3.5602151150  3.7051231985  11.4296887975
As  8.8987477685  2.2360442855  17.3720642440
As  7.1168501920  8.1772117900  7.1429381845
As  1.7783175385  9.6462906825  1.2005627585
As  6.1644095320  5.9009180915  15.1531285615
As  0.8258768785  0.0402493925  13.6486244800
As  4.5126557750  5.9814168765  3.4194984205
As  9.8511884285  11.8420855960  4.9240025225
16
scale = 2.10000
Li  9.1090133190  3.9014788470  10.6990674210
Li  3.6402725520  2.1845951820  18.8051674020
Li  1.8284682150  8.2706691900  8.3265504840
Li  7.2972089820  9.9875528550  0.2204504820
Li  0.9094503810  7.2654104250  15.9874681890
Li  6.3781911480  10.9928116200  12.5509586580
Li  10.0280311530  4.9067375910  3.0381497160
Li  4.5592903860  1.1793364170  6.4746592470
As  3.6470496300  3.7954920570  11.7084616950
As  9.1157903970  2.2905819510  17.7957731280
As  7.2904319040  8.3766559800  7.3171561890
As  1.8216911370  9.8815660650  1.2298447770
As  6.3147609840  6.0448429230  15.5227170630
As  0.8460202170  0.0412310850  13.9815177600
As  4.6227205500  6.1273050930  3.5029008210
As  10.0914613170  12.1309169520  5.0441001450
16
scale = 2.15000
Li  9.3258945885  3.9943712005  10.9538071215
Li  3.7269457080  2.2366093530  19.2529094830
Li  1.8720031725  8.4675898850  8.5248016860
Li  7.4709520530  10.2253517325  0.2256993030
Li  0.9311039615  7.4383963875  16.3681221935
Li  6.5300528420  11.2545452300  12.8497910070
Li  10.2667937995  5.0235646765  3.1104866140
Li  4.6678449190  1.2074158555  6.6288178005
As  3.7338841450  3.8858609155  11.9872345925
As  9.3328330255  2.3451196165  18.2194820120
As  7.4640136160  8.5761001700  7.4913741935
As  1.8650647355  10.1168414475  1.2591267955
As  6.4651124360  6.1887677545  15.8923055645
As  0.8661635555  0.0422127775  14.3144110400
As  4.7327853250  6.2731933095  3.5863032215
As  10.3317342055  12.4197483080  5.1641977675
16
scale = 2.20000
Li  9.5427758580  4.0872635540  11.2085468220
Li  3.8136188640  2.2886235240  19.7006515640
Li  1.9155381300  8.6645105800  8.7230528880
Li  7.6446951240  10.4631506100  0.2309481240
Li  0.9527575420  7.6113823500  16.7487761980
Li  6.6819145360  11.5162788400  13.1486233560
Li  10.5055564460  5.1403917620  3.1828235120
Li  4.7763994520  1.2354952940  6.7829763540
As  3.8207186600  3.9762297740  12.2660074900
As  9.5498756540  2.3996572820  18.6431908960
As  7.6375953280  8.7755443600  7.6655921980
As  1.9084383340  10.3521168300  1.2884088140
As  6.6154638880  6.3326925860  16.2618940660
As  0.8863068940  0.0431944700  14.6473043200
As  4.8428501000  6.4190815260  3.6697056220
As  10.5720070940  12.7085796640  5.2842953900
16
scale = 2.25000
Li  9.7596571275  4.1801559075  11.4632865225
Li  3.9002920200  2.3406376950  20.1483936450
Li  1.9590730875  8.8614312750  8.9213040900
Li  7.8184381950  10.7009494875  0.2361969450
Li  0.9744111225  7.7843683125  17.1294302025
Li  6.8337762300  11.7780124500  13.4474557050
Li  10.7443190925  5.2572188475  3.2551604100
Li  4.8849539850  1.2635747325  6.9371349075
As  3.9075531750  4.0665986325  12.5447803875
As  9.7669182825  2.4541949475  19.0668997800
As  7.8111770400  8.9749885500  7.8398102025
As  1.9518119325  10.5873922125  1.3176908325
As  6.7658153400  6.4766174175  16.6314825675
As  0.9064502325  0.0441761625  14.9801976000
As  4.9529148750  6.5649697425  3.7531080225
As  10.8122799825  12.9974110200  5.4043930125
16
scale = 2.30000
Li  9.9765383970  4.2730482610  11.7180262230
Li  3.9869651760  2.3926518660  20.5961357260
Li  2.0026080450  9.0583519700  9.1195552920
Li  7.9921812660  10.9387483650  0.2414457660
Li  0.9960647030  7.9573542750  17.5100842070
Li  6.9856379240  12.0397460600  13.7462880540
Li  10.9830817390  5.3740459330  3.3274973080
Li  4.9935085180  1.2916541710  7.0912934610
As  3.9943876900  4.1569674910  12.8235532850
As  9.9839609110  2.5087326130  19.4906086640
As  7.9847587520  9.1744327400  8.0140282070
As  1.9951855310  10.8226675950  1.3469728510
As  6.9161667920  6.6205422490  17.0010710690
As  0.9265935710  0.0451578550  15.3130908800
As  5.0629796500  6.7108579590  3.8365104230
As  11.0525528710  13.2862423760  5.5244906350
16
scale = 2.35000
Li  10.1934196665  4.3659406145  11.9727659235
Li  4.0736383320  2.4446660370  21.0438778070
Li  2.0461430025  9.2552726650  9.3178064940
Li  8.1659243370  11.1765472425  0.2466945870
Li  1.0177182835  8.1303402375  17.8907382115
Li  7.1374996180  12.3014796700  14.0451204030
Li  11.2218443855  5.4908730185  3.3998342060
Li  5.1020630510  1.3197336095  7.2454520145
As  4.0812222050  4.2473363495  13.1023261825
As  10.2010035395  2.5632702785  19.9143175480
As  8.1583404640  9.3738769300  8.1882462115
As  2.0385591295  11.0579429775  1.3762548695
As  7.0665182440  6.7644670805  17.3706595705
As  0.9467369095  0.0461395475  15.6459841600
As  5.1730444250  6.8567461755  3.9199128235
As  11.2928257595  13.5750737320  5.6445882575
16
scale = 2.40000
Li  10.4103009360  4.4588329680  12.2275056240
Li  4.1603114880  2.4966802080  21.4916198880
Li  2.0896779600  9.4521933600  9.5160576960
Li  8.3396674080  11.4143461200  0.2519434080
Li  1.0393718640  8.3033262000  18.2713922160
Li  7.2893613120  12.5632132800  14.3439527520
Li  11.4606070320  5.6077001040  3.4721711040
Li  5.2106175840  1.3478130480  7.3996105680
As  4.1680567200  4.3377052080  13.3810990800
As  10.4180461680  2.6178079440  20.3380264320
As  8.3319221760  9.5733211200  8.3624642160
As  2.0819327280  11.2932183600  1.4055368880
As  7.2168696960  6.9083919120  17.7402480720
As  0.9668802480  0.0471212400  15.9788774400
As  5.2831092000  7.0026343920  4.0033152240
As  11.5330986480  13.8639050880  5.7646858800
16
scale = 2.45000
Li  10.6271822055  4.5517253215  12.4822453245
Li  4.2469846440  2.5486943790  21.9393619690
Li  2.1332129175  9.6491140550  9.7143088980
Li  8.5134104790  11.6521449975  0.2571922290
Li  1.0610254445  8.4763121625  18.6520462205
Li  7.4412230060  12.8249468900  14.6427851010
Li  11.6993696785  5.7245271895  3.5445080020
Li  5.3191721170  1.3758924865  7.5537691215
As  4.2548912350  4.4280740665  13.6598719775
As  10.6350887965  2.6723456095  20.7617353160
As  8.5055038880  9.7727653100  8.5366822205
As  2.1253063265  11.5284937425  1.4348189065
As  7.3672211480  7.0523167435  18.1098365735
As  0.9870235865  0.0481029325  16.3117707200
As  5.3931739750  7.1485226085  4.0867176245
As  11.7733715365  14.1527364440  5.8847835025
