8
scale = 0.75000
Li  2.1021867225  1.2136980675  0.9023106975
Li  -0.0000002550  2.4273961350  2.7069321000
Au  3.1414767600  0.6136637550  2.7069321000
Au  1.0392812550  3.0274304475  0.9023106975
Au  -0.0000043350  1.2273347925  0.9023106975
Au  -1.0392903000  3.0274304475  0.9023106975
Au  2.1021907950  2.4137594175  2.7069321000
Au  1.0629052125  0.6136637550  2.7069321000
8
scale = 0.80000
Li  2.2423325040  1.2946112720  0.9624647440
Li  -0.0000002720  2.5892225440  2.8873942400
Au  3.3509085440  0.6545746720  2.8873942400
Au  1.1085666720  3.2292591440  0.9624647440
Au  -0.0000046240  1.3091571120  0.9624647440
Au  -1.1085763200  3.2292591440  0.9624647440
Au  2.2423368480  2.5746767120  2.8873942400
Au  1.1337655600  0.6545746720  2.8873942400
8
scale = 0.85000
Li  2.3824782855  1.3755244765  1.0226187905
Li  -0.0000002890  2.7510489530  3.0678563800
Au  3.5603403280  0.6954855890  3.0678563800
Au  1.1778520890  3.4310878405  1.0226187905
Au  -0.0000049130  1.3909794315  1.0226187905
Au  -1.1778623400  3.4310878405  1.0226187905
Au  2.3824829010  2.7355940065  3.0678563800
Au  1.2046259075  0.6954855890  3.0678563800
8
scale = 0.90000
Li  2.5226240670  1.4564376810  1.0827728370
Li  -0.0000003060  2.9128753620  3.2483185200
Au  3.7697721120  0.7363965060  3.2483185200
Au  1.2471375060  3.6329165370  1.0827728370
Au  -0.0000052020  1.4728017510  1.0827728370
Au  -1.2471483600  3.6329165370  1.0827728370
Au  2.5226289540  2.8965113010  3.2483185200
Au  1.2754862550  0.7363965060  3.2483185200
8
scale = 0.95000
Li  2.6627698485  1.5373508855  1.1429268835
Li  -0.0000003230  3.0747017710  3.4287806600
Au  3.9792038960  0.7773074230  3.4287806600
Au  1.3164229230  3.8347452335  1.1429268835
Au  -0.0000054910  1.5546240705  1.1429268835
Au  -1.3164343800  3.8347452335  1.1429268835
Au  2.6627750070  3.0574285955  3.4287806600
Au  1.3463466025  0.7773074230  3.4287806600
8
scale = 1.00000
Li  2.8029156300  1.6182640900  1.2030809300
Li  -0.0000003400  3.2365281800  3.6092428000
Au  4.1886356800  0.8182183400  3.6092428000
Au  1.3857083400  4.0365739300  1.2030809300
Au  -0.0000057800  1.6364463900  1.2030809300
Au  -1.3857204000  4.0365739300  1.2030809300
Au  2.8029210600  3.2183458900  3.6092428000
Au  1.4172069500  0.8182183400  3.6092428000
8
scale = 1.05000
Li  2.9430614115  1.6991772945  1.2632349765
Li  -0.0000003570  3.3983545890  3.7897049400
Au  4.3980674640  0.8591292570  3.7897049400
Au  1.4549937570  4.2384026265  1.2632349765
Au  -0.0000060690  1.7182687095  1.2632349765
Au  -1.4550064200  4.2384026265  1.2632349765
Au  2.9430671130  3.3792631845  3.7897049400
Au  1.4880672975  0.8591292570  3.7897049400
8
scale = 1.10000
Li  3.0832071930  1.7800904990  1.3233890230
Li  -0.0000003740  3.5601809980  3.9701670800
Au  4.6074992480  0.9000401740  3.9701670800
Au  1.5242791740  4.4402313230  1.3233890230
Au  -0.0000063580  1.8000910290  1.3233890230
Au  -1.5242924400  4.4402313230  1.3233890230
Au  3.0832131660  3.5401804790  3.9701670800
Au  1.5589276450  0.9000401740  3.9701670800
8
scale = 1.15000
Li  3.2233529745  1.8610037035  1.3835430695
Li  -0.0000003910  3.7220074070  4.1506292200
Au  4.8169310320  0.9409510910  4.1506292200
Au  1.5935645910  4.6420600195  1.3835430695
Au  -0.0000066470  1.8819133485  1.3835430695
Au  -1.5935784600  4.6420600195  1.3835430695
Au  3.2233592190  3.7010977735  4.1506292200
Au  1.6297879925  0.9409510910  4.1506292200
8
scale = 1.20000
Li  3.3634987560  1.9419169080  1.4436971160
Li  -0.0000004080  3.8838338160  4.3310913600
Au  5.0263628160  0.9818620080  4.3310913600
Au  1.6628500080  4.8438887160  1.4436971160
Au  -0.0000069360  1.9637356680  1.4436971160
Au  -1.6628644800  4.8438887160  1.4436971160
Au  3.3635052720  3.8620150680  4.3310913600
Au  1.7006483400  0.9818620080  4.3310913600
8
scale = 1.25000
Li  3.5036445375  2.0228301125  1.5038511625
Li  -0.0000004250  4.0456602250  4.5115535000
Au  5.2357946000  1.0227729250  4.5115535000
Au  1.7321354250  5.0457174125  1.5038511625
Au  -0.0000072250  2.0455579875  1.5038511625
Au  -1.7321505000  5.0457174125  1.5038511625
Au  3.5036513250  4.0229323625  4.5115535000
Au  1.7715086875  1.0227729250  4.5115535000
8
scale = 1.30000
Li  3.6437903190  2.1037433170  1.5640052090
Li  -0.0000004420  4.2074866340  4.6920156400
Au  5.4452263840  1.0636838420  4.6920156400
Au  1.8014208420  5.2475461090  1.5640052090
Au  -0.0000075140  2.1273803070  1.5640052090
Au  -1.8014365200  5.2475461090  1.5640052090
Au  3.6437973780  4.1838496570  4.6920156400
Au  1.8423690350  1.0636838420  4.6920156400
8
scale = 1.35000
Li  3.7839361005  2.1846565215  1.6241592555
Li  -0.0000004590  4.3693130430  4.8724777800
Au  5.6546581680  1.1045947590  4.8724777800
Au  1.8707062590  5.4493748055  1.6241592555
Au  -0.0000078030  2.2092026265  1.6241592555
Au  -1.8707225400  5.4493748055  1.6241592555
Au  3.7839434310  4.3447669515  4.8724777800
Au  1.9132293825  1.1045947590  4.8724777800
8
scale = 1.40000
Li  3.9240818820  2.2655697260  1.6843133020
Li  -0.0000004760  4.5311394520  5.0529399200
Au  5.8640899520  1.1455056760  5.0529399200
Au  1.9399916760  5.6512035020  1.6843133020
Au  -0.0000080920  2.2910249460  1.6843133020
Au  -1.9400085600  5.6512035020  1.6843133020
Au  3.9240894840  4.5056842460  5.0529399200
Au  1.9840897300  1.1455056760  5.0529399200
8
scale = 1.45000
Li  4.0642276635  2.3464829305  1.7444673485
Li  -0.0000004930  4.6929658610  5.2334020600
Au  6.0735217360  1.1864165930  5.2334020600
Au  2.0092770930  5.8530321985  1.7444673485
Au  -0.0000083810  2.3728472655  1.7444673485
Au  -2.0092945800  5.8530321985  1.7444673485
Au  4.0642355370  4.6666015405  5.2334020600
Au  2.0549500775  1.1864165930  5.2334020600
8
scale = 1.50000
Li  4.2043734450  2.4273961350  1.8046213950
Li  -0.0000005100  4.8547922700  5.4138642000
Au  6.2829535200  1.2273275100  5.4138642000
Au  2.0785625100  6.0548608950  1.8046213950
Au  -0.0000086700  2.4546695850  1.8046213950
Au  -2.0785806000  6.0548608950  1.8046213950
Au  4.2043815900  4.8275188350  5.4138642000
Au  2.1258104250  1.2273275100  5.4138642000
8
scale = 1.55000
Li  4.3445192265  2.5083093395  1.8647754415
Li  -0.0000005270  5.0166186790  5.5943263400
Au  6.4923853040  1.2682384270  5.5943263400
Au  2.1478479270  6.2566895915  1.8647754415
Au  -0.0000089590  2.5364919045  1.8647754415
Au  -2.1478666200  6.2566895915  1.8647754415
Au  4.3445276430  4.9884361295  5.5943263400
Au  2.1966707725  1.2682384270  5.5943263400
8
scale = 1.60000
Li  4.4846650080  2.5892225440  1.9249294880
Li  -0.0000005440  5.1784450880  5.7747884800
Au  6.7018170880  1.3091493440  5.7747884800
Au  2.2171333440  6.4585182880  1.9249294880
Au  -0.0000092480  2.6183142240  1.9249294880
Au  -2.2171526400  6.4585182880  1.9249294880
Au  4.4846736960  5.1493534240  5.7747884800
Au  2.2675311200  1.3091493440  5.7747884800
8
scale = 1.65000
Li  4.6248107895  2.6701357485  1.9850835345
Li  -0.0000005610  5.3402714970  5.9552506200
Au  6.9112488720  1.3500602610  5.9552506200
Au  2.2864187610  6.6603469845  1.9850835345
Au  -0.0000095370  2.7001365435  1.9850835345
Au  -2.2864386600  6.6603469845  1.9850835345
Au  4.6248197490  5.3102707185  5.9552506200
Au  2.3383914675  1.3500602610  5.9552506200
8
scale = 1.70000
Li  4.7649565710  2.7510489530  2.0452375810
Li  -0.0000005780  5.5020979060  6.1357127600
Au  7.1206806560  1.3909711780  6.1357127600
Au  2.3557041780  6.8621756810  2.0452375810
Au  -0.0000098260  2.7819588630  2.0452375810
Au  -2.3557246800  6.8621756810  2.0452375810
Au  4.7649658020  5.4711880130  6.1357127600
Au  2.4092518150  1.3909711780  6.1357127600
8
scale = 1.75000
Li  4.9051023525  2.8319621575  2.1053916275
Li  -0.0000005950  5.6639243150  6.3161749000
Au  7.3301124400  1.4318820950  6.3161749000
Au  2.4249895950  7.0640043775  2.1053916275
Au  -0.0000101150  2.8637811825  2.1053916275
Au  -2.4250107000  7.0640043775  2.1053916275
Au  4.9051118550  5.6321053075  6.3161749000
Au  2.4801121625  1.4318820950  6.3161749000
8
scale = 1.80000
Li  5.0452481340  2.9128753620  2.1655456740
Li  -0.0000006120  5.8257507240  6.4966370400
Au  7.5395442240  1.4727930120  6.4966370400
Au  2.4942750120  7.2658330740  2.1655456740
Au  -0.0000104040  2.9456035020  2.1655456740
Au  -2.4942967200  7.2658330740  2.1655456740
Au  5.0452579080  5.7930226020  6.4966370400
Au  2.5509725100  1.4727930120  6.4966370400
8
scale = 1.85000
Li  5.1853939155  2.9937885665  2.2256997205
Li  -0.0000006290  5.9875771330  6.6770991800
Au  7.7489760080  1.5137039290  6.6770991800
Au  2.5635604290  7.4676617705  2.2256997205
Au  -0.0000106930  3.0274258215  2.2256997205
Au  -2.5635827400  7.4676617705  2.2256997205
Au  5.1854039610  5.9539398965  6.6770991800
Au  2.6218328575  1.5137039290  6.6770991800
8
scale = 1.90000
Li  5.3255396970  3.0747017710  2.2858537670
Li  -0.0000006460  6.1494035420  6.8575613200
Au  7.9584077920  1.5546148460  6.8575613200
Au  2.6328458460  7.6694904670  2.2858537670
Au  -0.0000109820  3.1092481410  2.2858537670
Au  -2.6328687600  7.6694904670  2.2858537670
Au  5.3255500140  6.1148571910  6.8575613200
Au  2.6926932050  1.5546148460  6.8575613200
8
scale = 1.95000
Li  5.4656854785  3.1556149755  2.3460078135
Li  -0.0000006630  6.3112299510  7.0380234600
Au  8.1678395760  1.5955257630  7.0380234600
Au  2.7021312630  7.8713191635  2.3460078135
Au  -0.0000112710  3.1910704605  2.3460078135
Au  -2.7021547800  7.8713191635  2.3460078135
Au  5.4656960670  6.2757744855  7.0380234600
Au  2.7635535525  1.5955257630  7.0380234600
8
scale = 2.00000
Li  5.6058312600  3.2365281800  2.4061618600
Li  -0.0000006800  6.4730563600  7.2184856000
Au  8.3772713600  1.6364366800  7.2184856000
Au  2.7714166800  8.0731478600  2.4061618600
Au  -0.0000115600  3.2728927800  2.4061618600
Au  -2.7714408000  8.0731478600  2.4061618600
Au  5.6058421200  6.4366917800  7.2184856000
Au  2.8344139000  1.6364366800  7.2184856000
8
scale = 2.05000
Li  5.7459770415  3.3174413845  2.4663159065
Li  -0.0000006970  6.6348827690  7.3989477400
Au  8.5867031440  1.6773475970  7.3989477400
Au  2.8407020970  8.2749765565  2.4663159065
Au  -0.0000118490  3.3547150995  2.4663159065
Au  -2.8407268200  8.2749765565  2.4663159065
Au  5.7459881730  6.5976090745  7.3989477400
Au  2.9052742475  1.6773475970  7.3989477400
8
scale = 2.10000
Li  5.8861228230  3.3983545890  2.5264699530
Li  -0.0000007140  6.7967091780  7.5794098800
Au  8.7961349280  1.7182585140  7.5794098800
Au  2.9099875140  8.4768052530  2.5264699530
Au  -0.0000121380  3.4365374190  2.5264699530
Au  -2.9100128400  8.4768052530  2.5264699530
Au  5.8861342260  6.7585263690  7.5794098800
Au  2.9761345950  1.7182585140  7.5794098800
8
scale = 2.15000
Li  6.0262686045  3.4792677935  2.5866239995
Li  -0.0000007310  6.9585355870  7.7598720200
Au  9.0055667120  1.7591694310  7.7598720200
Au  2.9792729310  8.6786339495  2.5866239995
Au  -0.0000124270  3.5183597385  2.5866239995
Au  -2.9792988600  8.6786339495  2.5866239995
Au  6.0262802790  6.9194436635  7.7598720200
Au  3.0469949425  1.7591694310  7.7598720200
8
scale = 2.20000
Li  6.1664143860  3.5601809980  2.6467780460
Li  -0.0000007480  7.1203619960  7.9403341600
Au  9.2149984960  1.8000803480  7.9403341600
Au  3.0485583480  8.8804626460  2.6467780460
Au  -0.0000127160  3.6001820580  2.6467780460
Au  -3.0485848800  8.8804626460  2.6467780460
Au  6.1664263320  7.0803609580  7.9403341600
Au  3.1178552900  1.8000803480  7.9403341600
8
scale = 2.25000
Li  6.3065601675  3.6410942025  2.7069320925
Li  -0.0000007650  7.2821884050  8.1207963000
Au  9.4244302800  1.8409912650  8.1207963000
Au  3.1178437650  9.0822913425  2.7069320925
Au  -0.0000130050  3.6820043775  2.7069320925
Au  -3.1178709000  9.0822913425  2.7069320925
Au  6.3065723850  7.2412782525  8.1207963000
Au  3.1887156375  1.8409912650  8.1207963000
8
scale = 2.30000
Li  6.4467059490  3.7220074070  2.7670861390
Li  -0.0000007820  7.4440148140  8.3012584400
Au  9.6338620640  1.8819021820  8.3012584400
Au  3.1871291820  9.2841200390  2.7670861390
Au  -0.0000132940  3.7638266970  2.7670861390
Au  -3.1871569200  9.2841200390  2.7670861390
Au  6.4467184380  7.4021955470  8.3012584400
Au  3.2595759850  1.8819021820  8.3012584400
8
scale = 2.35000
Li  6.5868517305  3.8029206115  2.8272401855
Li  -0.0000007990  7.6058412230  8.4817205800
Au  9.8432938480  1.9228130990  8.4817205800
Au  3.2564145990  9.4859487355  2.8272401855
Au  -0.0000135830  3.8456490165  2.8272401855
Au  -3.2564429400  9.4859487355  2.8272401855
Au  6.5868644910  7.5631128415  8.4817205800
Au  3.3304363325  1.9228130990  8.4817205800
8
scale = 2.40000
Li  6.7269975120  3.8838338160  2.8873942320
Li  -0.0000008160  7.7676676320  8.6621827200
Au  10.0527256320  1.9637240160  8.6621827200
Au  3.3257000160  9.6877774320  2.8873942320
Au  -0.0000138720  3.9274713360  2.8873942320
Au  -3.3257289600  9.6877774320  2.8873942320
Au  6.7270105440  7.7240301360  8.6621827200
Au  3.4012966800  1.9637240160  8.6621827200
8
scale = 2.45000
Li  6.8671432935  3.9647470205  2.9475482785
Li  -0.0000008330  7.9294940410  8.8426448600
Au  10.2621574160  2.0046349330  8.8426448600
Au  3.3949854330  9.8896061285  2.9475482785
Au  -0.0000141610  4.0092936555  2.9475482785
Au  -3.3950149800  9.8896061285  2.9475482785
Au  6.8671565970  7.8849474305  8.8426448600
Au  3.4721570275  2.0046349330  8.8426448600
