4
scale = 0.75000
Li  0.0000000000  0.0000000000  0.0000000000
Au  1.5106226400  1.5106226400  0.0000000000
Au  1.5106226400  0.0000000000  1.5106226400
Au  -0.0000000000  1.5106226400  1.5106226400
4
scale = 0.80000
Li  0.0000000000  0.0000000000  0.0000000000
Au  1.6113308160  1.6113308160  0.0000000000
Au  1.6113308160  0.0000000000  1.6113308160
Au  -0.0000000000  1.6113308160  1.6113308160
4
scale = 0.85000
Li  0.0000000000  0.0000000000  0.0000000000
Au  1.7120389920  1.7120389920  0.0000000000
Au  1.7120389920  0.0000000000  1.7120389920
Au  -0.0000000000  1.7120389920  1.7120389920
4
scale = 0.90000
Li  0.0000000000  0.0000000000  0.0000000000
Au  1.8127471680  1.8127471680  0.0000000000
Au  1.8127471680  0.0000000000  1.8127471680
Au  -0.0000000000  1.8127471680  1.8127471680
4
scale = 0.95000
Li  0.0000000000  0.0000000000  0.0000000000
Au  1.9134553440  1.9134553440  0.0000000000
Au  1.9134553440  0.0000000000  1.9134553440
Au  -0.0000000000  1.9134553440  1.9134553440
4
scale = 1.00000
Li  0.0000000000  0.0000000000  0.0000000000
Au  2.0141635200  2.0141635200  0.0000000000
Au  2.0141635200  0.0000000000  2.0141635200
Au  -0.0000000000  2.0141635200  2.0141635200
4
scale = 1.05000
Li  0.0000000000  0.0000000000  0.0000000000
Au  2.1148716960  2.1148716960  0.0000000000
Au  2.1148716960  0.0000000000  2.1148716960
Au  -0.0000000000  2.1148716960  2.1148716960
4
scale = 1.10000
Li  0.0000000000  0.0000000000  0.0000000000
Au  2.2155798720  2.2155798720  0.0000000000
Au  2.2155798720  0.0000000000  2.2155798720
Au  -0.0000000000  2.2155798720  2.2155798720
4
scale = 1.15000
Li  0.0000000000  0.0000000000  0.0000000000
Au  2.3162880480  2.3162880480  0.0000000000
Au  2.3162880480  0.0000000000  2.3162880480
Au  -0.0000000000  2.3162880480  2.3162880480
4
scale = 1.20000
Li  0.0000000000  0.0000000000  0.0000000000
Au  2.4169962240  2.4169962240  0.0000000000
Au  2.4169962240  0.0000000000  2.4169962240
Au  -0.0000000000  2.4169962240  2.4169962240
4
scale = 1.25000
Li  0.0000000000  0.0000000000  0.0000000000
Au  2.5177044000  2.5177044000  0.0000000000
Au  2.5177044000  0.0000000000  2.5177044000
Au  -0.0000000000  2.5177044000  2.5177044000
4
scale = 1.30000
Li  0.0000000000  0.0000000000  0.0000000000
Au  2.6184125760  2.6184125760  0.0000000000
Au  2.6184125760  0.0000000000  2.6184125760
Au  -0.0000000000  2.6184125760  2.6184125760
4
scale = 1.35000
Li  0.0000000000  0.0000000000  0.0000000000
Au  2.7191207520  2.7191207520  0.0000000000
Au  2.7191207520  0.0000000000  2.7191207520
Au  -0.0000000000  2.7191207520  2.7191207520
4
scale = 1.40000
Li  0.0000000000  0.0000000000  0.0000000000
Au  2.8198289280  2.8198289280  0.0000000000
Au  2.8198289280  0.0000000000  2.8198289280
Au  -0.0000000000  2.8198289280  2.8198289280
4
scale = 1.45000
Li  0.0000000000  0.0000000000  0.0000000000
Au  2.9205371040  2.9205371040  0.0000000000
Au  2.9205371040  0.0000000000  2.9205371040
Au  -0.0000000000  2.9205371040  2.9205371040
4
scale = 1.50000
Li  0.0000000000  0.0000000000  0.0000000000
Au  3.0212452800  3.0212452800  0.0000000000
Au  3.0212452800  0.0000000000  3.0212452800
Au  -0.0000000000  3.0212452800  3.0212452800
4
scale = 1.55000
Li  0.0000000000  0.0000000000  0.0000000000
Au  3.1219534560  3.1219534560  0.0000000000
Au  3.1219534560  0.0000000000  3.1219534560
Au  -0.0000000000  3.1219534560  3.1219534560
4
scale = 1.60000
Li  0.0000000000  0.0000000000  0.0000000000
Au  3.2226616320  3.2226616320  0.0000000000
Au  3.2226616320  0.0000000000  3.2226616320
Au  -0.0000000000  3.2226616320  3.2226616320
4
scale = 1.65000
Li  0.0000000000  0.0000000000  0.0000000000
Au  3.3233698080  3.3233698080  0.0000000000
Au  3.3233698080  0.0000000000  3.3233698080
Au  -0.0000000000  3.3233698080  3.3233698080
4
scale = 1.70000
Li  0.0000000000  0.0000000000  0.0000000000
Au  3.4240779840  3.4240779840  0.0000000000
Au  3.4240779840  0.0000000000  3.4240779840
Au  -0.0000000000  3.4240779840  3.4240779840
4
scale = 1.75000
Li  0.0000000000  0.0000000000  0.0000000000
Au  3.5247861600  3.5247861600  0.0000000000
Au  3.5247861600  0.0000000000  3.5247861600
Au  -0.0000000000  3.5247861600  3.5247861600
4
scale = 1.80000
Li  0.0000000000  0.0000000000  0.0000000000
Au  3.6254943360  3.6254943360  0.0000000000
Au  3.6254943360  0.0000000000  3.6254943360
Au  -0.0000000000  3.6254943360  3.6254943360
4
scale = 1.85000
Li  0.0000000000  0.0000000000  0.0000000000
Au  3.7262025120  3.7262025120  0.0000000000
Au  3.7262025120  0.0000000000  3.7262025120
Au  -0.0000000000  3.7262025120  3.7262025120
4
scale = 1.90000
Li  0.0000000000  0.0000000000  0.0000000000
Au  3.8269106880  3.8269106880  0.0000000000
Au  3.8269106880  0.0000000000  3.8269106880
Au  -0.0000000000  3.8269106880  3.8269106880
4
scale = 1.95000
Li  0.0000000000  0.0000000000  0.0000000000
Au  3.9276188640  3.9276188640  0.0000000000
Au  3.9276188640  0.0000000000  3.9276188640
Au  -0.0000000000  3.9276188640  3.9276188640
4
scale = 2.00000
Li  0.0000000000  0.0000000000  0.0000000000
Au  4.0283270400  4.0283270400  0.0000000000
Au  4.0283270400  0.0000000000  4.0283270400
Au  -0.0000000000  4.0283270400  4.0283270400
4
scale = 2.05000
Li  0.0000000000  0.0000000000  0.0000000000
Au  4.1290352160  4.1290352160  0.0000000000
Au  4.1290352160  0.0000000000  4.1290352160
Au  -0.0000000000  4.1290352160  4.1290352160
4
scale = 2.10000
Li  0.0000000000  0.0000000000  0.0000000000
Au  4.2297433920  4.2297433920  0.0000000000
Au  4.2297433920  0.0000000000  4.2297433920
Au  -0.0000000000  4.2297433920  4.2297433920
4
scale = 2.15000
Li  0.0000000000  0.0000000000  0.0000000000
Au  4.3304515680  4.3304515680  0.0000000000
Au  4.3304515680  0.0000000000  4.3304515680
Au  -0.0000000000  4.3304515680  4.3304515680
4
scale = 2.20000
Li  0.0000000000  0.0000000000  0.0000000000
Au  4.4311597440  4.4311597440  0.0000000000
Au  4.4311597440  0.0000000000  4.4311597440
Au  -0.0000000000  4.4311597440  4.4311597440
4
scale = 2.25000
Li  0.0000000000  0.0000000000  0.0000000000
Au  4.5318679200  4.5318679200  0.0000000000
Au  4.5318679200  0.0000000000  4.5318679200
Au  -0.0000000000  4.5318679200  4.5318679200
4
scale = 2.30000
Li  0.0000000000  0.0000000000  0.0000000000
Au  4.6325760960  4.6325760960  0.0000000000
Au  4.6325760960  0.0000000000  4.6325760960
Au  -0.0000000000  4.6325760960  4.6325760960
4
scale = 2.35000
Li  0.0000000000  0.0000000000  0.0000000000
Au  4.7332842720  4.7332842720  0.0000000000
Au  4.7332842720  0.0000000000  4.7332842720
Au  -0.0000000000  4.7332842720  4.7332842720
4
scale = 2.40000
Li  0.0000000000  0.0000000000  0.0000000000
Au  4.8339924480  4.8339924480  0.0000000000
Au  4.8339924480  0.0000000000  4.8339924480
Au  -0.0000000000  4.8339924480  4.8339924480
4
scale = 2.45000
Li  0.0000000000  0.0000000000  0.0000000000
Au  4.9347006240  4.9347006240  0.0000000000
Au  4.9347006240  0.0000000000  4.9347006240
Au  -0.0000000000  4.9347006240  4.9347006240
