4
scale = 0.75000
Li  0.0000000000  0.0000000000  0.0000000000
Au  1.9252723350  0.6720592050  -0.7117161225
Au  0.3055922625  2.0161722450  -0.7117161225
Au  1.1154300675  1.3441130400  -2.5978065150
4
scale = 0.80000
Li  0.0000000000  0.0000000000  0.0000000000
Au  2.0536238240  0.7168631520  -0.7591638640
Au  0.3259650800  2.1505837280  -0.7591638640
Au  1.1897920720  1.4337205760  -2.7709936160
4
scale = 0.85000
Li  0.0000000000  0.0000000000  0.0000000000
Au  2.1819753130  0.7616670990  -0.8066116055
Au  0.3463378975  2.2849952110  -0.8066116055
Au  1.2641540765  1.5233281120  -2.9441807170
4
scale = 0.90000
Li  0.0000000000  0.0000000000  0.0000000000
Au  2.3103268020  0.8064710460  -0.8540593470
Au  0.3667107150  2.4194066940  -0.8540593470
Au  1.3385160810  1.6129356480  -3.1173678180
4
scale = 0.95000
Li  0.0000000000  0.0000000000  0.0000000000
Au  2.4386782910  0.8512749930  -0.9015070885
Au  0.3870835325  2.5538181770  -0.9015070885
Au  1.4128780855  1.7025431840  -3.2905549190
4
scale = 1.00000
Li  0.0000000000  0.0000000000  0.0000000000
Au  2.5670297800  0.8960789400  -0.9489548300
Au  0.4074563500  2.6882296600  -0.9489548300
Au  1.4872400900  1.7921507200  -3.4637420200
4
scale = 1.05000
Li  0.0000000000  0.0000000000  0.0000000000
Au  2.6953812690  0.9408828870  -0.9964025715
Au  0.4278291675  2.8226411430  -0.9964025715
Au  1.5616020945  1.8817582560  -3.6369291210
4
scale = 1.10000
Li  0.0000000000  0.0000000000  0.0000000000
Au  2.8237327580  0.9856868340  -1.0438503130
Au  0.4482019850  2.9570526260  -1.0438503130
Au  1.6359640990  1.9713657920  -3.8101162220
4
scale = 1.15000
Li  0.0000000000  0.0000000000  0.0000000000
Au  2.9520842470  1.0304907810  -1.0912980545
Au  0.4685748025  3.0914641090  -1.0912980545
Au  1.7103261035  2.0609733280  -3.9833033230
4
scale = 1.20000
Li  0.0000000000  0.0000000000  0.0000000000
Au  3.0804357360  1.0752947280  -1.1387457960
Au  0.4889476200  3.2258755920  -1.1387457960
Au  1.7846881080  2.1505808640  -4.1564904240
4
scale = 1.25000
Li  0.0000000000  0.0000000000  0.0000000000
Au  3.2087872250  1.1200986750  -1.1861935375
Au  0.5093204375  3.3602870750  -1.1861935375
Au  1.8590501125  2.2401884000  -4.3296775250
4
scale = 1.30000
Li  0.0000000000  0.0000000000  0.0000000000
Au  3.3371387140  1.1649026220  -1.2336412790
Au  0.5296932550  3.4946985580  -1.2336412790
Au  1.9334121170  2.3297959360  -4.5028646260
4
scale = 1.35000
Li  0.0000000000  0.0000000000  0.0000000000
Au  3.4654902030  1.2097065690  -1.2810890205
Au  0.5500660725  3.6291100410  -1.2810890205
Au  2.0077741215  2.4194034720  -4.6760517270
4
scale = 1.40000
Li  0.0000000000  0.0000000000  0.0000000000
Au  3.5938416920  1.2545105160  -1.3285367620
Au  0.5704388900  3.7635215240  -1.3285367620
Au  2.0821361260  2.5090110080  -4.8492388280
4
scale = 1.45000
Li  0.0000000000  0.0000000000  0.0000000000
Au  3.7221931810  1.2993144630  -1.3759845035
Au  0.5908117075  3.8979330070  -1.3759845035
Au  2.1564981305  2.5986185440  -5.0224259290
4
scale = 1.50000
Li  0.0000000000  0.0000000000  0.0000000000
Au  3.8505446700  1.3441184100  -1.4234322450
Au  0.6111845250  4.0323444900  -1.4234322450
Au  2.2308601350  2.6882260800  -5.1956130300
4
scale = 1.55000
Li  0.0000000000  0.0000000000  0.0000000000
Au  3.9788961590  1.3889223570  -1.4708799865
Au  0.6315573425  4.1667559730  -1.4708799865
Au  2.3052221395  2.7778336160  -5.3688001310
4
scale = 1.60000
Li  0.0000000000  0.0000000000  0.0000000000
Au  4.1072476480  1.4337263040  -1.5183277280
Au  0.6519301600  4.3011674560  -1.5183277280
Au  2.3795841440  2.8674411520  -5.5419872320
4
scale = 1.65000
Li  0.0000000000  0.0000000000  0.0000000000
Au  4.2355991370  1.4785302510  -1.5657754695
Au  0.6723029775  4.4355789390  -1.5657754695
Au  2.4539461485  2.9570486880  -5.7151743330
4
scale = 1.70000
Li  0.0000000000  0.0000000000  0.0000000000
Au  4.3639506260  1.5233341980  -1.6132232110
Au  0.6926757950  4.5699904220  -1.6132232110
Au  2.5283081530  3.0466562240  -5.8883614340
4
scale = 1.75000
Li  0.0000000000  0.0000000000  0.0000000000
Au  4.4923021150  1.5681381450  -1.6606709525
Au  0.7130486125  4.7044019050  -1.6606709525
Au  2.6026701575  3.1362637600  -6.0615485350
4
scale = 1.80000
Li  0.0000000000  0.0000000000  0.0000000000
Au  4.6206536040  1.6129420920  -1.7081186940
Au  0.7334214300  4.8388133880  -1.7081186940
Au  2.6770321620  3.2258712960  -6.2347356360
4
scale = 1.85000
Li  0.0000000000  0.0000000000  0.0000000000
Au  4.7490050930  1.6577460390  -1.7555664355
Au  0.7537942475  4.9732248710  -1.7555664355
Au  2.7513941665  3.3154788320  -6.4079227370
4
scale = 1.90000
Li  0.0000000000  0.0000000000  0.0000000000
Au  4.8773565820  1.7025499860  -1.8030141770
Au  0.7741670650  5.1076363540  -1.8030141770
Au  2.8257561710  3.4050863680  -6.5811098380
4
scale = 1.95000
Li  0.0000000000  0.0000000000  0.0000000000
Au  5.0057080710  1.7473539330  -1.8504619185
Au  0.7945398825  5.2420478370  -1.8504619185
Au  2.9001181755  3.4946939040  -6.7542969390
4
scale = 2.00000
Li  0.0000000000  0.0000000000  0.0000000000
Au  5.1340595600  1.7921578800  -1.8979096600
Au  0.8149127000  5.3764593200  -1.8979096600
Au  2.9744801800  3.5843014400  -6.9274840400
4
scale = 2.05000
Li  0.0000000000  0.0000000000  0.0000000000
Au  5.2624110490  1.8369618270  -1.9453574015
Au  0.8352855175  5.5108708030  -1.9453574015
Au  3.0488421845  3.6739089760  -7.1006711410
4
scale = 2.10000
Li  0.0000000000  0.0000000000  0.0000000000
Au  5.3907625380  1.8817657740  -1.9928051430
Au  0.8556583350  5.6452822860  -1.9928051430
Au  3.1232041890  3.7635165120  -7.2738582420
4
scale = 2.15000
Li  0.0000000000  0.0000000000  0.0000000000
Au  5.5191140270  1.9265697210  -2.0402528845
Au  0.8760311525  5.7796937690  -2.0402528845
Au  3.1975661935  3.8531240480  -7.4470453430
4
scale = 2.20000
Li  0.0000000000  0.0000000000  0.0000000000
Au  5.6474655160  1.9713736680  -2.0877006260
Au  0.8964039700  5.9141052520  -2.0877006260
Au  3.2719281980  3.9427315840  -7.6202324440
4
scale = 2.25000
Li  0.0000000000  0.0000000000  0.0000000000
Au  5.7758170050  2.0161776150  -2.1351483675
Au  0.9167767875  6.0485167350  -2.1351483675
Au  3.3462902025  4.0323391200  -7.7934195450
4
scale = 2.30000
Li  0.0000000000  0.0000000000  0.0000000000
Au  5.9041684940  2.0609815620  -2.1825961090
Au  0.9371496050  6.1829282180  -2.1825961090
Au  3.4206522070  4.1219466560  -7.9666066460
4
scale = 2.35000
Li  0.0000000000  0.0000000000  0.0000000000
Au  6.0325199830  2.1057855090  -2.2300438505
Au  0.9575224225  6.3173397010  -2.2300438505
Au  3.4950142115  4.2115541920  -8.1397937470
4
scale = 2.40000
Li  0.0000000000  0.0000000000  0.0000000000
Au  6.1608714720  2.1505894560  -2.2774915920
Au  0.9778952400  6.4517511840  -2.2774915920
Au  3.5693762160  4.3011617280  -8.3129808480
4
scale = 2.45000
Li  0.0000000000  0.0000000000  0.0000000000
Au  6.2892229610  2.1953934030  -2.3249393335
Au  0.9982680575  6.5861626670  -2.3249393335
Au  3.6437382205  4.3907692640  -8.4861679490
