12
scale = 0.75000
Li  1.0659190350  0.7537185825  1.8462259350
B   1.2902011950  0.9123100125  3.6924518625
B   2.5526565150  0.9123100125  4.4213307825
B   1.7110196325  2.1025643100  4.4213307825
B   2.9734749600  2.1025643100  3.6924518625
B   1.7110196325  2.1025643100  2.9635729425
B   2.5526565150  0.9123100125  2.9635729425
B   2.3141869800  2.5735449600  5.5386777975
B   3.1977571125  1.3239880875  5.5386777975
B   3.6395421825  2.5735449600  6.3038719800
B   3.6395421825  2.5735449600  4.7734836075
B   0.0000000000  0.0000000000  0.0000000000
12
scale = 0.80000
Li  1.1369803040  0.8039664880  1.9693076640
B   1.3762146080  0.9731306800  3.9386153200
B   2.7228336160  0.9731306800  4.7160861680
B   1.8250876080  2.2427352640  4.7160861680
B   3.1717066240  2.2427352640  3.9386153200
B   1.8250876080  2.2427352640  3.1611444720
B   2.7228336160  0.9731306800  3.1611444720
B   2.4684661120  2.7451146240  5.9079229840
B   3.4109409200  1.4122539600  5.9079229840
B   3.8821783280  2.7451146240  6.7241301120
B   3.8821783280  2.7451146240  5.0917158480
B   0.0000000000  0.0000000000  0.0000000000
12
scale = 0.85000
Li  1.2080415730  0.8542143935  2.0923893930
B   1.4622280210  1.0339513475  4.1847787775
B   2.8930107170  1.0339513475  5.0108415535
B   1.9391555835  2.3829062180  5.0108415535
B   3.3699382880  2.3829062180  4.1847787775
B   1.9391555835  2.3829062180  3.3587160015
B   2.8930107170  1.0339513475  3.3587160015
B   2.6227452440  2.9166842880  6.2771681705
B   3.6241247275  1.5005198325  6.2771681705
B   4.1248144735  2.9166842880  7.1443882440
B   4.1248144735  2.9166842880  5.4099480885
B   0.0000000000  0.0000000000  0.0000000000
12
scale = 0.90000
Li  1.2791028420  0.9044622990  2.2154711220
B   1.5482414340  1.0947720150  4.4309422350
B   3.0631878180  1.0947720150  5.3055969390
B   2.0532235590  2.5230771720  5.3055969390
B   3.5681699520  2.5230771720  4.4309422350
B   2.0532235590  2.5230771720  3.5562875310
B   3.0631878180  1.0947720150  3.5562875310
B   2.7770243760  3.0882539520  6.6464133570
B   3.8373085350  1.5887857050  6.6464133570
B   4.3674506190  3.0882539520  7.5646463760
B   4.3674506190  3.0882539520  5.7281803290
B   0.0000000000  0.0000000000  0.0000000000
12
scale = 0.95000
Li  1.3501641110  0.9547102045  2.3385528510
B   1.6342548470  1.1555926825  4.6771056925
B   3.2333649190  1.1555926825  5.6003523245
B   2.1672915345  2.6632481260  5.6003523245
B   3.7664016160  2.6632481260  4.6771056925
B   2.1672915345  2.6632481260  3.7538590605
B   3.2333649190  1.1555926825  3.7538590605
B   2.9313035080  3.2598236160  7.0156585435
B   4.0504923425  1.6770515775  7.0156585435
B   4.6100867645  3.2598236160  7.9849045080
B   4.6100867645  3.2598236160  6.0464125695
B   0.0000000000  0.0000000000  0.0000000000
12
scale = 1.00000
Li  1.4212253800  1.0049581100  2.4616345800
B   1.7202682600  1.2164133500  4.9232691500
B   3.4035420200  1.2164133500  5.8951077100
B   2.2813595100  2.8034190800  5.8951077100
B   3.9646332800  2.8034190800  4.9232691500
B   2.2813595100  2.8034190800  3.9514305900
B   3.4035420200  1.2164133500  3.9514305900
B   3.0855826400  3.4313932800  7.3849037300
B   4.2636761500  1.7653174500  7.3849037300
B   4.8527229100  3.4313932800  8.4051626400
B   4.8527229100  3.4313932800  6.3646448100
B   0.0000000000  0.0000000000  0.0000000000
12
scale = 1.05000
Li  1.4922866490  1.0552060155  2.5847163090
B   1.8062816730  1.2772340175  5.1694326075
B   3.5737191210  1.2772340175  6.1898630955
B   2.3954274855  2.9435900340  6.1898630955
B   4.1628649440  2.9435900340  5.1694326075
B   2.3954274855  2.9435900340  4.1490021195
B   3.5737191210  1.2772340175  4.1490021195
B   3.2398617720  3.6029629440  7.7541489165
B   4.4768599575  1.8535833225  7.7541489165
B   5.0953590555  3.6029629440  8.8254207720
B   5.0953590555  3.6029629440  6.6828770505
B   0.0000000000  0.0000000000  0.0000000000
12
scale = 1.10000
Li  1.5633479180  1.1054539210  2.7077980380
B   1.8922950860  1.3380546850  5.4155960650
B   3.7438962220  1.3380546850  6.4846184810
B   2.5094954610  3.0837609880  6.4846184810
B   4.3610966080  3.0837609880  5.4155960650
B   2.5094954610  3.0837609880  4.3465736490
B   3.7438962220  1.3380546850  4.3465736490
B   3.3941409040  3.7745326080  8.1233941030
B   4.6900437650  1.9418491950  8.1233941030
B   5.3379952010  3.7745326080  9.2456789040
B   5.3379952010  3.7745326080  7.0011092910
B   0.0000000000  0.0000000000  0.0000000000
12
scale = 1.15000
Li  1.6344091870  1.1557018265  2.8308797670
B   1.9783084990  1.3988753525  5.6617595225
B   3.9140733230  1.3988753525  6.7793738665
B   2.6235634365  3.2239319420  6.7793738665
B   4.5593282720  3.2239319420  5.6617595225
B   2.6235634365  3.2239319420  4.5441451785
B   3.9140733230  1.3988753525  4.5441451785
B   3.5484200360  3.9461022720  8.4926392895
B   4.9032275725  2.0301150675  8.4926392895
B   5.5806313465  3.9461022720  9.6659370360
B   5.5806313465  3.9461022720  7.3193415315
B   0.0000000000  0.0000000000  0.0000000000
12
scale = 1.20000
Li  1.7054704560  1.2059497320  2.9539614960
B   2.0643219120  1.4596960200  5.9079229800
B   4.0842504240  1.4596960200  7.0741292520
B   2.7376314120  3.3641028960  7.0741292520
B   4.7575599360  3.3641028960  5.9079229800
B   2.7376314120  3.3641028960  4.7417167080
B   4.0842504240  1.4596960200  4.7417167080
B   3.7026991680  4.1176719360  8.8618844760
B   5.1164113800  2.1183809400  8.8618844760
B   5.8232674920  4.1176719360  10.0861951680
B   5.8232674920  4.1176719360  7.6375737720
B   0.0000000000  0.0000000000  0.0000000000
12
scale = 1.25000
Li  1.7765317250  1.2561976375  3.0770432250
B   2.1503353250  1.5205166875  6.1540864375
B   4.2544275250  1.5205166875  7.3688846375
B   2.8516993875  3.5042738500  7.3688846375
B   4.9557916000  3.5042738500  6.1540864375
B   2.8516993875  3.5042738500  4.9392882375
B   4.2544275250  1.5205166875  4.9392882375
B   3.8569783000  4.2892416000  9.2311296625
B   5.3295951875  2.2066468125  9.2311296625
B   6.0659036375  4.2892416000  10.5064533000
B   6.0659036375  4.2892416000  7.9558060125
B   0.0000000000  0.0000000000  0.0000000000
12
scale = 1.30000
Li  1.8475929940  1.3064455430  3.2001249540
B   2.2363487380  1.5813373550  6.4002498950
B   4.4246046260  1.5813373550  7.6636400230
B   2.9657673630  3.6444448040  7.6636400230
B   5.1540232640  3.6444448040  6.4002498950
B   2.9657673630  3.6444448040  5.1368597670
B   4.4246046260  1.5813373550  5.1368597670
B   4.0112574320  4.4608112640  9.6003748490
B   5.5427789950  2.2949126850  9.6003748490
B   6.3085397830  4.4608112640  10.9267114320
B   6.3085397830  4.4608112640  8.2740382530
B   0.0000000000  0.0000000000  0.0000000000
12
scale = 1.35000
Li  1.9186542630  1.3566934485  3.3232066830
B   2.3223621510  1.6421580225  6.6464133525
B   4.5947817270  1.6421580225  7.9583954085
B   3.0798353385  3.7846157580  7.9583954085
B   5.3522549280  3.7846157580  6.6464133525
B   3.0798353385  3.7846157580  5.3344312965
B   4.5947817270  1.6421580225  5.3344312965
B   4.1655365640  4.6323809280  9.9696200355
B   5.7559628025  2.3831785575  9.9696200355
B   6.5511759285  4.6323809280  11.3469695640
B   6.5511759285  4.6323809280  8.5922704935
B   0.0000000000  0.0000000000  0.0000000000
12
scale = 1.40000
Li  1.9897155320  1.4069413540  3.4462884120
B   2.4083755640  1.7029786900  6.8925768100
B   4.7649588280  1.7029786900  8.2531507940
B   3.1939033140  3.9247867120  8.2531507940
B   5.5504865920  3.9247867120  6.8925768100
B   3.1939033140  3.9247867120  5.5320028260
B   4.7649588280  1.7029786900  5.5320028260
B   4.3198156960  4.8039505920  10.3388652220
B   5.9691466100  2.4714444300  10.3388652220
B   6.7938120740  4.8039505920  11.7672276960
B   6.7938120740  4.8039505920  8.9105027340
B   0.0000000000  0.0000000000  0.0000000000
12
scale = 1.45000
Li  2.0607768010  1.4571892595  3.5693701410
B   2.4943889770  1.7637993575  7.1387402675
B   4.9351359290  1.7637993575  8.5479061795
B   3.3079712895  4.0649576660  8.5479061795
B   5.7487182560  4.0649576660  7.1387402675
B   3.3079712895  4.0649576660  5.7295743555
B   4.9351359290  1.7637993575  5.7295743555
B   4.4740948280  4.9755202560  10.7081104085
B   6.1823304175  2.5597103025  10.7081104085
B   7.0364482195  4.9755202560  12.1874858280
B   7.0364482195  4.9755202560  9.2287349745
B   0.0000000000  0.0000000000  0.0000000000
12
scale = 1.50000
Li  2.1318380700  1.5074371650  3.6924518700
B   2.5804023900  1.8246200250  7.3849037250
B   5.1053130300  1.8246200250  8.8426615650
B   3.4220392650  4.2051286200  8.8426615650
B   5.9469499200  4.2051286200  7.3849037250
B   3.4220392650  4.2051286200  5.9271458850
B   5.1053130300  1.8246200250  5.9271458850
B   4.6283739600  5.1470899200  11.0773555950
B   6.3955142250  2.6479761750  11.0773555950
B   7.2790843650  5.1470899200  12.6077439600
B   7.2790843650  5.1470899200  9.5469672150
B   0.0000000000  0.0000000000  0.0000000000
12
scale = 1.55000
Li  2.2028993390  1.5576850705  3.8155335990
B   2.6664158030  1.8854406925  7.6310671825
B   5.2754901310  1.8854406925  9.1374169505
B   3.5361072405  4.3452995740  9.1374169505
B   6.1451815840  4.3452995740  7.6310671825
B   3.5361072405  4.3452995740  6.1247174145
B   5.2754901310  1.8854406925  6.1247174145
B   4.7826530920  5.3186595840  11.4466007815
B   6.6086980325  2.7362420475  11.4466007815
B   7.5217205105  5.3186595840  13.0280020920
B   7.5217205105  5.3186595840  9.8651994555
B   0.0000000000  0.0000000000  0.0000000000
12
scale = 1.60000
Li  2.2739606080  1.6079329760  3.9386153280
B   2.7524292160  1.9462613600  7.8772306400
B   5.4456672320  1.9462613600  9.4321723360
B   3.6501752160  4.4854705280  9.4321723360
B   6.3434132480  4.4854705280  7.8772306400
B   3.6501752160  4.4854705280  6.3222889440
B   5.4456672320  1.9462613600  6.3222889440
B   4.9369322240  5.4902292480  11.8158459680
B   6.8218818400  2.8245079200  11.8158459680
B   7.7643566560  5.4902292480  13.4482602240
B   7.7643566560  5.4902292480  10.1834316960
B   0.0000000000  0.0000000000  0.0000000000
12
scale = 1.65000
Li  2.3450218770  1.6581808815  4.0616970570
B   2.8384426290  2.0070820275  8.1233940975
B   5.6158443330  2.0070820275  9.7269277215
B   3.7642431915  4.6256414820  9.7269277215
B   6.5416449120  4.6256414820  8.1233940975
B   3.7642431915  4.6256414820  6.5198604735
B   5.6158443330  2.0070820275  6.5198604735
B   5.0912113560  5.6617989120  12.1850911545
B   7.0350656475  2.9127737925  12.1850911545
B   8.0069928015  5.6617989120  13.8685183560
B   8.0069928015  5.6617989120  10.5016639365
B   0.0000000000  0.0000000000  0.0000000000
12
scale = 1.70000
Li  2.4160831460  1.7084287870  4.1847787860
B   2.9244560420  2.0679026950  8.3695575550
B   5.7860214340  2.0679026950  10.0216831070
B   3.8783111670  4.7658124360  10.0216831070
B   6.7398765760  4.7658124360  8.3695575550
B   3.8783111670  4.7658124360  6.7174320030
B   5.7860214340  2.0679026950  6.7174320030
B   5.2454904880  5.8333685760  12.5543363410
B   7.2482494550  3.0010396650  12.5543363410
B   8.2496289470  5.8333685760  14.2887764880
B   8.2496289470  5.8333685760  10.8198961770
B   0.0000000000  0.0000000000  0.0000000000
12
scale = 1.75000
Li  2.4871444150  1.7586766925  4.3078605150
B   3.0104694550  2.1287233625  8.6157210125
B   5.9561985350  2.1287233625  10.3164384925
B   3.9923791425  4.9059833900  10.3164384925
B   6.9381082400  4.9059833900  8.6157210125
B   3.9923791425  4.9059833900  6.9150035325
B   5.9561985350  2.1287233625  6.9150035325
B   5.3997696200  6.0049382400  12.9235815275
B   7.4614332625  3.0893055375  12.9235815275
B   8.4922650925  6.0049382400  14.7090346200
B   8.4922650925  6.0049382400  11.1381284175
B   0.0000000000  0.0000000000  0.0000000000
12
scale = 1.80000
Li  2.5582056840  1.8089245980  4.4309422440
B   3.0964828680  2.1895440300  8.8618844700
B   6.1263756360  2.1895440300  10.6111938780
B   4.1064471180  5.0461543440  10.6111938780
B   7.1363399040  5.0461543440  8.8618844700
B   4.1064471180  5.0461543440  7.1125750620
B   6.1263756360  2.1895440300  7.1125750620
B   5.5540487520  6.1765079040  13.2928267140
B   7.6746170700  3.1775714100  13.2928267140
B   8.7349012380  6.1765079040  15.1292927520
B   8.7349012380  6.1765079040  11.4563606580
B   0.0000000000  0.0000000000  0.0000000000
12
scale = 1.85000
Li  2.6292669530  1.8591725035  4.5540239730
B   3.1824962810  2.2503646975  9.1080479275
B   6.2965527370  2.2503646975  10.9059492635
B   4.2205150935  5.1863252980  10.9059492635
B   7.3345715680  5.1863252980  9.1080479275
B   4.2205150935  5.1863252980  7.3101465915
B   6.2965527370  2.2503646975  7.3101465915
B   5.7083278840  6.3480775680  13.6620719005
B   7.8878008775  3.2658372825  13.6620719005
B   8.9775373835  6.3480775680  15.5495508840
B   8.9775373835  6.3480775680  11.7745928985
B   0.0000000000  0.0000000000  0.0000000000
12
scale = 1.90000
Li  2.7003282220  1.9094204090  4.6771057020
B   3.2685096940  2.3111853650  9.3542113850
B   6.4667298380  2.3111853650  11.2007046490
B   4.3345830690  5.3264962520  11.2007046490
B   7.5328032320  5.3264962520  9.3542113850
B   4.3345830690  5.3264962520  7.5077181210
B   6.4667298380  2.3111853650  7.5077181210
B   5.8626070160  6.5196472320  14.0313170870
B   8.1009846850  3.3541031550  14.0313170870
B   9.2201735290  6.5196472320  15.9698090160
B   9.2201735290  6.5196472320  12.0928251390
B   0.0000000000  0.0000000000  0.0000000000
12
scale = 1.95000
Li  2.7713894910  1.9596683145  4.8001874310
B   3.3545231070  2.3720060325  9.6003748425
B   6.6369069390  2.3720060325  11.4954600345
B   4.4486510445  5.4666672060  11.4954600345
B   7.7310348960  5.4666672060  9.6003748425
B   4.4486510445  5.4666672060  7.7052896505
B   6.6369069390  2.3720060325  7.7052896505
B   6.0168861480  6.6912168960  14.4005622735
B   8.3141684925  3.4423690275  14.4005622735
B   9.4628096745  6.6912168960  16.3900671480
B   9.4628096745  6.6912168960  12.4110573795
B   0.0000000000  0.0000000000  0.0000000000
12
scale = 2.00000
Li  2.8424507600  2.0099162200  4.9232691600
B   3.4405365200  2.4328267000  9.8465383000
B   6.8070840400  2.4328267000  11.7902154200
B   4.5627190200  5.6068381600  11.7902154200
B   7.9292665600  5.6068381600  9.8465383000
B   4.5627190200  5.6068381600  7.9028611800
B   6.8070840400  2.4328267000  7.9028611800
B   6.1711652800  6.8627865600  14.7698074600
B   8.5273523000  3.5306349000  14.7698074600
B   9.7054458200  6.8627865600  16.8103252800
B   9.7054458200  6.8627865600  12.7292896200
B   0.0000000000  0.0000000000  0.0000000000
12
scale = 2.05000
Li  2.9135120290  2.0601641255  5.0463508890
B   3.5265499330  2.4936473675  10.0927017575
B   6.9772611410  2.4936473675  12.0849708055
B   4.6767869955  5.7470091140  12.0849708055
B   8.1274982240  5.7470091140  10.0927017575
B   4.6767869955  5.7470091140  8.1004327095
B   6.9772611410  2.4936473675  8.1004327095
B   6.3254444120  7.0343562240  15.1390526465
B   8.7405361075  3.6189007725  15.1390526465
B   9.9480819655  7.0343562240  17.2305834120
B   9.9480819655  7.0343562240  13.0475218605
B   0.0000000000  0.0000000000  0.0000000000
12
scale = 2.10000
Li  2.9845732980  2.1104120310  5.1694326180
B   3.6125633460  2.5544680350  10.3388652150
B   7.1474382420  2.5544680350  12.3797261910
B   4.7908549710  5.8871800680  12.3797261910
B   8.3257298880  5.8871800680  10.3388652150
B   4.7908549710  5.8871800680  8.2980042390
B   7.1474382420  2.5544680350  8.2980042390
B   6.4797235440  7.2059258880  15.5082978330
B   8.9537199150  3.7071666450  15.5082978330
B   10.1907181110  7.2059258880  17.6508415440
B   10.1907181110  7.2059258880  13.3657541010
B   0.0000000000  0.0000000000  0.0000000000
12
scale = 2.15000
Li  3.0556345670  2.1606599365  5.2925143470
B   3.6985767590  2.6152887025  10.5850286725
B   7.3176153430  2.6152887025  12.6744815765
B   4.9049229465  6.0273510220  12.6744815765
B   8.5239615520  6.0273510220  10.5850286725
B   4.9049229465  6.0273510220  8.4955757685
B   7.3176153430  2.6152887025  8.4955757685
B   6.6340026760  7.3774955520  15.8775430195
B   9.1669037225  3.7954325175  15.8775430195
B   10.4333542565  7.3774955520  18.0710996760
B   10.4333542565  7.3774955520  13.6839863415
B   0.0000000000  0.0000000000  0.0000000000
12
scale = 2.20000
Li  3.1266958360  2.2109078420  5.4155960760
B   3.7845901720  2.6761093700  10.8311921300
B   7.4877924440  2.6761093700  12.9692369620
B   5.0189909220  6.1675219760  12.9692369620
B   8.7221932160  6.1675219760  10.8311921300
B   5.0189909220  6.1675219760  8.6931472980
B   7.4877924440  2.6761093700  8.6931472980
B   6.7882818080  7.5490652160  16.2467882060
B   9.3800875300  3.8836983900  16.2467882060
B   10.6759904020  7.5490652160  18.4913578080
B   10.6759904020  7.5490652160  14.0022185820
B   0.0000000000  0.0000000000  0.0000000000
12
scale = 2.25000
Li  3.1977571050  2.2611557475  5.5386778050
B   3.8706035850  2.7369300375  11.0773555875
B   7.6579695450  2.7369300375  13.2639923475
B   5.1330588975  6.3076929300  13.2639923475
B   8.9204248800  6.3076929300  11.0773555875
B   5.1330588975  6.3076929300  8.8907188275
B   7.6579695450  2.7369300375  8.8907188275
B   6.9425609400  7.7206348800  16.6160333925
B   9.5932713375  3.9719642625  16.6160333925
B   10.9186265475  7.7206348800  18.9116159400
B   10.9186265475  7.7206348800  14.3204508225
B   0.0000000000  0.0000000000  0.0000000000
12
scale = 2.30000
Li  3.2688183740  2.3114036530  5.6617595340
B   3.9566169980  2.7977507050  11.3235190450
B   7.8281466460  2.7977507050  13.5587477330
B   5.2471268730  6.4478638840  13.5587477330
B   9.1186565440  6.4478638840  11.3235190450
B   5.2471268730  6.4478638840  9.0882903570
B   7.8281466460  2.7977507050  9.0882903570
B   7.0968400720  7.8922045440  16.9852785790
B   9.8064551450  4.0602301350  16.9852785790
B   11.1612626930  7.8922045440  19.3318740720
B   11.1612626930  7.8922045440  14.6386830630
B   0.0000000000  0.0000000000  0.0000000000
12
scale = 2.35000
Li  3.3398796430  2.3616515585  5.7848412630
B   4.0426304110  2.8585713725  11.5696825025
B   7.9983237470  2.8585713725  13.8535031185
B   5.3611948485  6.5880348380  13.8535031185
B   9.3168882080  6.5880348380  11.5696825025
B   5.3611948485  6.5880348380  9.2858618865
B   7.9983237470  2.8585713725  9.2858618865
B   7.2511192040  8.0637742080  17.3545237655
B   10.0196389525  4.1484960075  17.3545237655
B   11.4038988385  8.0637742080  19.7521322040
B   11.4038988385  8.0637742080  14.9569153035
B   0.0000000000  0.0000000000  0.0000000000
12
scale = 2.40000
Li  3.4109409120  2.4118994640  5.9079229920
B   4.1286438240  2.9193920400  11.8158459600
B   8.1685008480  2.9193920400  14.1482585040
B   5.4752628240  6.7282057920  14.1482585040
B   9.5151198720  6.7282057920  11.8158459600
B   5.4752628240  6.7282057920  9.4834334160
B   8.1685008480  2.9193920400  9.4834334160
B   7.4053983360  8.2353438720  17.7237689520
B   10.2328227600  4.2367618800  17.7237689520
B   11.6465349840  8.2353438720  20.1723903360
B   11.6465349840  8.2353438720  15.2751475440
B   0.0000000000  0.0000000000  0.0000000000
12
scale = 2.45000
Li  3.4820021810  2.4621473695  6.0310047210
B   4.2146572370  2.9802127075  12.0620094175
B   8.3386779490  2.9802127075  14.4430138895
B   5.5893307995  6.8683767460  14.4430138895
B   9.7133515360  6.8683767460  12.0620094175
B   5.5893307995  6.8683767460  9.6810049455
B   8.3386779490  2.9802127075  9.6810049455
B   7.5596774680  8.4069135360  18.0930141385
B   10.4460065675  4.3250277525  18.0930141385
B   11.8891711295  8.4069135360  20.5926484680
B   11.8891711295  8.4069135360  15.5933797845
B   0.0000000000  0.0000000000  0.0000000000
