12
scale = 0.75000
Li  2.0149946175  1.3826061000  3.8051456325
B   1.6304684025  1.1187600900  1.6907992350
B   0.4822263750  1.1187600900  2.2988445225
B   1.2173407275  0.0474126750  2.2988445225
B   1.3277701875  0.0415674000  0.9753736875
B   0.5165041125  1.2238974675  0.9753736875
B   0.0605798625  0.0415674000  1.6464073950
B   0.1391366925  0.0954698475  0.2627477850
B   3.3830053725  2.3212785900  6.3885173700
B   2.2374790350  2.3711469375  5.6980720875
B   3.0173835825  1.2345228000  5.6980720875
B   3.4556829375  2.3711469375  5.0529788700
12
scale = 0.80000
Li  2.1493275920  1.4747798400  4.0588220080
B   1.7391662960  1.1933440960  1.8035191840
B   0.5143748000  1.1933440960  2.4521008240
B   1.2984967760  0.0505735200  2.4521008240
B   1.4162882000  0.0443385600  1.0403986000
B   0.5509377200  1.3054906320  1.0403986000
B   0.0646185200  0.0443385600  1.7561678880
B   0.1484124720  0.1018345040  0.2802643040
B   3.6085390640  2.4760304960  6.8144185280
B   2.3866443040  2.5292234000  6.0779435600
B   3.2185424880  1.3168243200  6.0779435600
B   3.6860618000  2.5292234000  5.3898441280
12
scale = 0.85000
Li  2.2836605665  1.5669535800  4.3124983835
B   1.8478641895  1.2679281020  1.9162391330
B   0.5465232250  1.2679281020  2.6053571255
B   1.3796528245  0.0537343650  2.6053571255
B   1.5048062125  0.0471097200  1.1054235125
B   0.5853713275  1.3870837965  1.1054235125
B   0.0686571775  0.0471097200  1.8659283810
B   0.1576882515  0.1081991605  0.2977808230
B   3.8340727555  2.6307824020  7.2403196860
B   2.5358095730  2.6872998625  6.4578150325
B   3.4197013935  1.3991258400  6.4578150325
B   3.9164406625  2.6872998625  5.7267093860
12
scale = 0.90000
Li  2.4179935410  1.6591273200  4.5661747590
B   1.9565620830  1.3425121080  2.0289590820
B   0.5786716500  1.3425121080  2.7586134270
B   1.4608088730  0.0568952100  2.7586134270
B   1.5933242250  0.0498808800  1.1704484250
B   0.6198049350  1.4686769610  1.1704484250
B   0.0726958350  0.0498808800  1.9756888740
B   0.1669640310  0.1145638170  0.3152973420
B   4.0596064470  2.7855343080  7.6662208440
B   2.6849748420  2.8453763250  6.8376865050
B   3.6208602990  1.4814273600  6.8376865050
B   4.1468195250  2.8453763250  6.0635746440
12
scale = 0.95000
Li  2.5523265155  1.7513010600  4.8198511345
B   2.0652599765  1.4170961140  2.1416790310
B   0.6108200750  1.4170961140  2.9118697285
B   1.5419649215  0.0600560550  2.9118697285
B   1.6818422375  0.0526520400  1.2354733375
B   0.6542385425  1.5502701255  1.2354733375
B   0.0767344925  0.0526520400  2.0854493670
B   0.1762398105  0.1209284735  0.3328138610
B   4.2851401385  2.9402862140  8.0921220020
B   2.8341401110  3.0034527875  7.2175579775
B   3.8220192045  1.5637288800  7.2175579775
B   4.3771983875  3.0034527875  6.4004399020
12
scale = 1.00000
Li  2.6866594900  1.8434748000  5.0735275100
B   2.1739578700  1.4916801200  2.2543989800
B   0.6429685000  1.4916801200  3.0651260300
B   1.6231209700  0.0632169000  3.0651260300
B   1.7703602500  0.0554232000  1.3004982500
B   0.6886721500  1.6318632900  1.3004982500
B   0.0807731500  0.0554232000  2.1952098600
B   0.1855155900  0.1272931300  0.3503303800
B   4.5106738300  3.0950381200  8.5180231600
B   2.9833053800  3.1615292500  7.5974294500
B   4.0231781100  1.6460304000  7.5974294500
B   4.6075772500  3.1615292500  6.7373051600
12
scale = 1.05000
Li  2.8209924645  1.9356485400  5.3272038855
B   2.2826557635  1.5662641260  2.3671189290
B   0.6751169250  1.5662641260  3.2183823315
B   1.7042770185  0.0663777450  3.2183823315
B   1.8588782625  0.0581943600  1.3655231625
B   0.7231057575  1.7134564545  1.3655231625
B   0.0848118075  0.0581943600  2.3049703530
B   0.1947913695  0.1336577865  0.3678468990
B   4.7362075215  3.2497900260  8.9439243180
B   3.1324706490  3.3196057125  7.9773009225
B   4.2243370155  1.7283319200  7.9773009225
B   4.8379561125  3.3196057125  7.0741704180
12
scale = 1.10000
Li  2.9553254390  2.0278222800  5.5808802610
B   2.3913536570  1.6408481320  2.4798388780
B   0.7072653500  1.6408481320  3.3716386330
B   1.7854330670  0.0695385900  3.3716386330
B   1.9473962750  0.0609655200  1.4305480750
B   0.7575393650  1.7950496190  1.4305480750
B   0.0888504650  0.0609655200  2.4147308460
B   0.2040671490  0.1400224430  0.3853634180
B   4.9617412130  3.4045419320  9.3698254760
B   3.2816359180  3.4776821750  8.3571723950
B   4.4254959210  1.8106334400  8.3571723950
B   5.0683349750  3.4776821750  7.4110356760
12
scale = 1.15000
Li  3.0896584135  2.1199960200  5.8345566365
B   2.5000515505  1.7154321380  2.5925588270
B   0.7394137750  1.7154321380  3.5248949345
B   1.8665891155  0.0726994350  3.5248949345
B   2.0359142875  0.0637366800  1.4955729875
B   0.7919729725  1.8766427835  1.4955729875
B   0.0928891225  0.0637366800  2.5244913390
B   0.2133429285  0.1463870995  0.4028799370
B   5.1872749045  3.5592938380  9.7957266340
B   3.4308011870  3.6357586375  8.7370438675
B   4.6266548265  1.8929349600  8.7370438675
B   5.2987138375  3.6357586375  7.7479009340
12
scale = 1.20000
Li  3.2239913880  2.2121697600  6.0882330120
B   2.6087494440  1.7900161440  2.7052787760
B   0.7715622000  1.7900161440  3.6781512360
B   1.9477451640  0.0758602800  3.6781512360
B   2.1244323000  0.0665078400  1.5605979000
B   0.8264065800  1.9582359480  1.5605979000
B   0.0969277800  0.0665078400  2.6342518320
B   0.2226187080  0.1527517560  0.4203964560
B   5.4128085960  3.7140457440  10.2216277920
B   3.5799664560  3.7938351000  9.1169153400
B   4.8278137320  1.9752364800  9.1169153400
B   5.5290927000  3.7938351000  8.0847661920
12
scale = 1.25000
Li  3.3583243625  2.3043435000  6.3419093875
B   2.7174473375  1.8646001500  2.8179987250
B   0.8037106250  1.8646001500  3.8314075375
B   2.0289012125  0.0790211250  3.8314075375
B   2.2129503125  0.0692790000  1.6256228125
B   0.8608401875  2.0398291125  1.6256228125
B   0.1009664375  0.0692790000  2.7440123250
B   0.2318944875  0.1591164125  0.4379129750
B   5.6383422875  3.8687976500  10.6475289500
B   3.7291317250  3.9519115625  9.4967868125
B   5.0289726375  2.0575380000  9.4967868125
B   5.7594715625  3.9519115625  8.4216314500
12
scale = 1.30000
Li  3.4926573370  2.3965172400  6.5955857630
B   2.8261452310  1.9391841560  2.9307186740
B   0.8358590500  1.9391841560  3.9846638390
B   2.1100572610  0.0821819700  3.9846638390
B   2.3014683250  0.0720501600  1.6906477250
B   0.8952737950  2.1214222770  1.6906477250
B   0.1050050950  0.0720501600  2.8537728180
B   0.2411702670  0.1654810690  0.4554294940
B   5.8638759790  4.0235495560  11.0734301080
B   3.8782969940  4.1099880250  9.8766582850
B   5.2301315430  2.1398395200  9.8766582850
B   5.9898504250  4.1099880250  8.7584967080
12
scale = 1.35000
Li  3.6269903115  2.4886909800  6.8492621385
B   2.9348431245  2.0137681620  3.0434386230
B   0.8680074750  2.0137681620  4.1379201405
B   2.1912133095  0.0853428150  4.1379201405
B   2.3899863375  0.0748213200  1.7556726375
B   0.9297074025  2.2030154415  1.7556726375
B   0.1090437525  0.0748213200  2.9635333110
B   0.2504460465  0.1718457255  0.4729460130
B   6.0894096705  4.1783014620  11.4993312660
B   4.0274622630  4.2680644875  10.2565297575
B   5.4312904485  2.2221410400  10.2565297575
B   6.2202292875  4.2680644875  9.0953619660
12
scale = 1.40000
Li  3.7613232860  2.5808647200  7.1029385140
B   3.0435410180  2.0883521680  3.1561585720
B   0.9001559000  2.0883521680  4.2911764420
B   2.2723693580  0.0885036600  4.2911764420
B   2.4785043500  0.0775924800  1.8206975500
B   0.9641410100  2.2846086060  1.8206975500
B   0.1130824100  0.0775924800  3.0732938040
B   0.2597218260  0.1782103820  0.4904625320
B   6.3149433620  4.3330533680  11.9252324240
B   4.1766275320  4.4261409500  10.6364012300
B   5.6324493540  2.3044425600  10.6364012300
B   6.4506081500  4.4261409500  9.4322272240
12
scale = 1.45000
Li  3.8956562605  2.6730384600  7.3566148895
B   3.1522389115  2.1629361740  3.2688785210
B   0.9323043250  2.1629361740  4.4444327435
B   2.3535254065  0.0916645050  4.4444327435
B   2.5670223625  0.0803636400  1.8857224625
B   0.9985746175  2.3662017705  1.8857224625
B   0.1171210675  0.0803636400  3.1830542970
B   0.2689976055  0.1845750385  0.5079790510
B   6.5404770535  4.4878052740  12.3511335820
B   4.3257928010  4.5842174125  11.0162727025
B   5.8336082595  2.3867440800  11.0162727025
B   6.6809870125  4.5842174125  9.7690924820
12
scale = 1.50000
Li  4.0299892350  2.7652122000  7.6102912650
B   3.2609368050  2.2375201800  3.3815984700
B   0.9644527500  2.2375201800  4.5976890450
B   2.4346814550  0.0948253500  4.5976890450
B   2.6555403750  0.0831348000  1.9507473750
B   1.0330082250  2.4477949350  1.9507473750
B   0.1211597250  0.0831348000  3.2928147900
B   0.2782733850  0.1909396950  0.5254955700
B   6.7660107450  4.6425571800  12.7770347400
B   4.4749580700  4.7422938750  11.3961441750
B   6.0347671650  2.4690456000  11.3961441750
B   6.9113658750  4.7422938750  10.1059577400
12
scale = 1.55000
Li  4.1643222095  2.8573859400  7.8639676405
B   3.3696346985  2.3121041860  3.4943184190
B   0.9966011750  2.3121041860  4.7509453465
B   2.5158375035  0.0979861950  4.7509453465
B   2.7440583875  0.0859059600  2.0157722875
B   1.0674418325  2.5293880995  2.0157722875
B   0.1251983825  0.0859059600  3.4025752830
B   0.2875491645  0.1973043515  0.5430120890
B   6.9915444365  4.7973090860  13.2029358980
B   4.6241233390  4.9003703375  11.7760156475
B   6.2359260705  2.5513471200  11.7760156475
B   7.1417447375  4.9003703375  10.4428229980
12
scale = 1.60000
Li  4.2986551840  2.9495596800  8.1176440160
B   3.4783325920  2.3866881920  3.6070383680
B   1.0287496000  2.3866881920  4.9042016480
B   2.5969935520  0.1011470400  4.9042016480
B   2.8325764000  0.0886771200  2.0807972000
B   1.1018754400  2.6109812640  2.0807972000
B   0.1292370400  0.0886771200  3.5123357760
B   0.2968249440  0.2036690080  0.5605286080
B   7.2170781280  4.9520609920  13.6288370560
B   4.7732886080  5.0584468000  12.1558871200
B   6.4370849760  2.6336486400  12.1558871200
B   7.3721236000  5.0584468000  10.7796882560
12
scale = 1.65000
Li  4.4329881585  3.0417334200  8.3713203915
B   3.5870304855  2.4612721980  3.7197583170
B   1.0608980250  2.4612721980  5.0574579495
B   2.6781496005  0.1043078850  5.0574579495
B   2.9210944125  0.0914482800  2.1458221125
B   1.1363090475  2.6925744285  2.1458221125
B   0.1332756975  0.0914482800  3.6220962690
B   0.3061007235  0.2100336645  0.5780451270
B   7.4426118195  5.1068128980  14.0547382140
B   4.9224538770  5.2165232625  12.5357585925
B   6.6382438815  2.7159501600  12.5357585925
B   7.6025024625  5.2165232625  11.1165535140
12
scale = 1.70000
Li  4.5673211330  3.1339071600  8.6249967670
B   3.6957283790  2.5358562040  3.8324782660
B   1.0930464500  2.5358562040  5.2107142510
B   2.7593056490  0.1074687300  5.2107142510
B   3.0096124250  0.0942194400  2.2108470250
B   1.1707426550  2.7741675930  2.2108470250
B   0.1373143550  0.0942194400  3.7318567620
B   0.3153765030  0.2163983210  0.5955616460
B   7.6681455110  5.2615648040  14.4806393720
B   5.0716191460  5.3745997250  12.9156300650
B   6.8394027870  2.7982516800  12.9156300650
B   7.8328813250  5.3745997250  11.4534187720
12
scale = 1.75000
Li  4.7016541075  3.2260809000  8.8786731425
B   3.8044262725  2.6104402100  3.9451982150
B   1.1251948750  2.6104402100  5.3639705525
B   2.8404616975  0.1106295750  5.3639705525
B   3.0981304375  0.0969906000  2.2758719375
B   1.2051762625  2.8557607575  2.2758719375
B   0.1413530125  0.0969906000  3.8416172550
B   0.3246522825  0.2227629775  0.6130781650
B   7.8936792025  5.4163167100  14.9065405300
B   5.2207844150  5.5326761875  13.2955015375
B   7.0405616925  2.8805532000  13.2955015375
B   8.0632601875  5.5326761875  11.7902840300
12
scale = 1.80000
Li  4.8359870820  3.3182546400  9.1323495180
B   3.9131241660  2.6850242160  4.0579181640
B   1.1573433000  2.6850242160  5.5172268540
B   2.9216177460  0.1137904200  5.5172268540
B   3.1866484500  0.0997617600  2.3408968500
B   1.2396098700  2.9373539220  2.3408968500
B   0.1453916700  0.0997617600  3.9513777480
B   0.3339280620  0.2291276340  0.6305946840
B   8.1192128940  5.5710686160  15.3324416880
B   5.3699496840  5.6907526500  13.6753730100
B   7.2417205980  2.9628547200  13.6753730100
B   8.2936390500  5.6907526500  12.1271492880
12
scale = 1.85000
Li  4.9703200565  3.4104283800  9.3860258935
B   4.0218220595  2.7596082220  4.1706381130
B   1.1894917250  2.7596082220  5.6704831555
B   3.0027737945  0.1169512650  5.6704831555
B   3.2751664625  0.1025329200  2.4059217625
B   1.2740434775  3.0189470865  2.4059217625
B   0.1494303275  0.1025329200  4.0611382410
B   0.3432038415  0.2354922905  0.6481112030
B   8.3447465855  5.7258205220  15.7583428460
B   5.5191149530  5.8488291125  14.0552444825
B   7.4428795035  3.0451562400  14.0552444825
B   8.5240179125  5.8488291125  12.4640145460
12
scale = 1.90000
Li  5.1046530310  3.5026021200  9.6397022690
B   4.1305199530  2.8341922280  4.2833580620
B   1.2216401500  2.8341922280  5.8237394570
B   3.0839298430  0.1201121100  5.8237394570
B   3.3636844750  0.1053040800  2.4709466750
B   1.3084770850  3.1005402510  2.4709466750
B   0.1534689850  0.1053040800  4.1708987340
B   0.3524796210  0.2418569470  0.6656277220
B   8.5702802770  5.8805724280  16.1842440040
B   5.6682802220  6.0069055750  14.4351159550
B   7.6440384090  3.1274577600  14.4351159550
B   8.7543967750  6.0069055750  12.8008798040
12
scale = 1.95000
Li  5.2389860055  3.5947758600  9.8933786445
B   4.2392178465  2.9087762340  4.3960780110
B   1.2537885750  2.9087762340  5.9769957585
B   3.1650858915  0.1232729550  5.9769957585
B   3.4522024875  0.1080752400  2.5359715875
B   1.3429106925  3.1821334155  2.5359715875
B   0.1575076425  0.1080752400  4.2806592270
B   0.3617554005  0.2482216035  0.6831442410
B   8.7958139685  6.0353243340  16.6101451620
B   5.8174454910  6.1649820375  14.8149874275
B   7.8451973145  3.2097592800  14.8149874275
B   8.9847756375  6.1649820375  13.1377450620
12
scale = 2.00000
Li  5.3733189800  3.6869496000  10.1470550200
B   4.3479157400  2.9833602400  4.5087979600
B   1.2859370000  2.9833602400  6.1302520600
B   3.2462419400  0.1264338000  6.1302520600
B   3.5407205000  0.1108464000  2.6009965000
B   1.3773443000  3.2637265800  2.6009965000
B   0.1615463000  0.1108464000  4.3904197200
B   0.3710311800  0.2545862600  0.7006607600
B   9.0213476600  6.1900762400  17.0360463200
B   5.9666107600  6.3230585000  15.1948589000
B   8.0463562200  3.2920608000  15.1948589000
B   9.2151545000  6.3230585000  13.4746103200
12
scale = 2.05000
Li  5.5076519545  3.7791233400  10.4007313955
B   4.4566136335  3.0579442460  4.6215179090
B   1.3180854250  3.0579442460  6.2835083615
B   3.3273979885  0.1295946450  6.2835083615
B   3.6292385125  0.1136175600  2.6660214125
B   1.4117779075  3.3453197445  2.6660214125
B   0.1655849575  0.1136175600  4.5001802130
B   0.3803069595  0.2609509165  0.7181772790
B   9.2468813515  6.3448281460  17.4619474780
B   6.1157760290  6.4811349625  15.5747303725
B   8.2475151255  3.3743623200  15.5747303725
B   9.4455333625  6.4811349625  13.8114755780
12
scale = 2.10000
Li  5.6419849290  3.8712970800  10.6544077710
B   4.5653115270  3.1325282520  4.7342378580
B   1.3502338500  3.1325282520  6.4367646630
B   3.4085540370  0.1327554900  6.4367646630
B   3.7177565250  0.1163887200  2.7310463250
B   1.4462115150  3.4269129090  2.7310463250
B   0.1696236150  0.1163887200  4.6099407060
B   0.3895827390  0.2673155730  0.7356937980
B   9.4724150430  6.4995800520  17.8878486360
B   6.2649412980  6.6392114250  15.9546018450
B   8.4486740310  3.4566638400  15.9546018450
B   9.6759122250  6.6392114250  14.1483408360
12
scale = 2.15000
Li  5.7763179035  3.9634708200  10.9080841465
B   4.6740094205  3.2071122580  4.8469578070
B   1.3823822750  3.2071122580  6.5900209645
B   3.4897100855  0.1359163350  6.5900209645
B   3.8062745375  0.1191598800  2.7960712375
B   1.4806451225  3.5085060735  2.7960712375
B   0.1736622725  0.1191598800  4.7197011990
B   0.3988585185  0.2736802295  0.7532103170
B   9.6979487345  6.6543319580  18.3137497940
B   6.4141065670  6.7972878875  16.3344733175
B   8.6498329365  3.5389653600  16.3344733175
B   9.9062910875  6.7972878875  14.4852060940
12
scale = 2.20000
Li  5.9106508780  4.0556445600  11.1617605220
B   4.7827073140  3.2816962640  4.9596777560
B   1.4145307000  3.2816962640  6.7432772660
B   3.5708661340  0.1390771800  6.7432772660
B   3.8947925500  0.1219310400  2.8610961500
B   1.5150787300  3.5900992380  2.8610961500
B   0.1777009300  0.1219310400  4.8294616920
B   0.4081342980  0.2800448860  0.7707268360
B   9.9234824260  6.8090838640  18.7396509520
B   6.5632718360  6.9553643500  16.7143447900
B   8.8509918420  3.6212668800  16.7143447900
B   10.1366699500  6.9553643500  14.8220713520
12
scale = 2.25000
Li  6.0449838525  4.1478183000  11.4154368975
B   4.8914052075  3.3562802700  5.0723977050
B   1.4466791250  3.3562802700  6.8965335675
B   3.6520221825  0.1422380250  6.8965335675
B   3.9833105625  0.1247022000  2.9261210625
B   1.5495123375  3.6716924025  2.9261210625
B   0.1817395875  0.1247022000  4.9392221850
B   0.4174100775  0.2864095425  0.7882433550
B   10.1490161175  6.9638357700  19.1655521100
B   6.7124371050  7.1134408125  17.0942162625
B   9.0521507475  3.7035684000  17.0942162625
B   10.3670488125  7.1134408125  15.1589366100
12
scale = 2.30000
Li  6.1793168270  4.2399920400  11.6691132730
B   5.0001031010  3.4308642760  5.1851176540
B   1.4788275500  3.4308642760  7.0497898690
B   3.7331782310  0.1453988700  7.0497898690
B   4.0718285750  0.1274733600  2.9911459750
B   1.5839459450  3.7532855670  2.9911459750
B   0.1857782450  0.1274733600  5.0489826780
B   0.4266858570  0.2927741990  0.8057598740
B   10.3745498090  7.1185876760  19.5914532680
B   6.8616023740  7.2715172750  17.4740877350
B   9.2533096530  3.7858699200  17.4740877350
B   10.5974276750  7.2715172750  15.4958018680
12
scale = 2.35000
Li  6.3136498015  4.3321657800  11.9227896485
B   5.1088009945  3.5054482820  5.2978376030
B   1.5109759750  3.5054482820  7.2030461705
B   3.8143342795  0.1485597150  7.2030461705
B   4.1603465875  0.1302445200  3.0561708875
B   1.6183795525  3.8348787315  3.0561708875
B   0.1898169025  0.1302445200  5.1587431710
B   0.4359616365  0.2991388555  0.8232763930
B   10.6000835005  7.2733395820  20.0173544260
B   7.0107676430  7.4295937375  17.8539592075
B   9.4544685585  3.8681714400  17.8539592075
B   10.8278065375  7.4295937375  15.8326671260
12
scale = 2.40000
Li  6.4479827760  4.4243395200  12.1764660240
B   5.2174988880  3.5800322880  5.4105575520
B   1.5431244000  3.5800322880  7.3563024720
B   3.8954903280  0.1517205600  7.3563024720
B   4.2488646000  0.1330156800  3.1211958000
B   1.6528131600  3.9164718960  3.1211958000
B   0.1938555600  0.1330156800  5.2685036640
B   0.4452374160  0.3055035120  0.8407929120
B   10.8256171920  7.4280914880  20.4432555840
B   7.1599329120  7.5876702000  18.2338306800
B   9.6556274640  3.9504729600  18.2338306800
B   11.0581854000  7.5876702000  16.1695323840
12
scale = 2.45000
Li  6.5823157505  4.5165132600  12.4301423995
B   5.3261967815  3.6546162940  5.5232775010
B   1.5752728250  3.6546162940  7.5095587735
B   3.9766463765  0.1548814050  7.5095587735
B   4.3373826125  0.1357868400  3.1862207125
B   1.6872467675  3.9980650605  3.1862207125
B   0.1978942175  0.1357868400  5.3782641570
B   0.4545131955  0.3118681685  0.8583094310
B   11.0511508835  7.5828433940  20.8691567420
B   7.3090981810  7.7457466625  18.6137021525
B   9.8567863695  4.0327744800  18.6137021525
B   11.2885642625  7.7457466625  16.5063976420
