16
scale = 0.75000
Li  1.5528963825  0.8015656050  3.0350473575
Li  1.5528963825  3.6653979075  1.4319161550
Li  1.5528963825  1.4319161550  0.8015656050
Li  1.5528963825  3.0350473575  3.6653979075
B   2.1929043075  2.2334817600  2.2334817600
B   2.1929043075  0.0000000000  0.0000000000
B   0.9128884650  2.2334817600  2.2334817600
B   0.9128884650  0.0000000000  0.0000000000
B   -0.0000000000  2.9691406200  2.8231623075
B   -0.0000000000  1.4978228925  1.6438012050
B   -0.0000000000  3.7313046525  0.5896805475
B   -0.0000000000  0.7356588600  3.8772829650
B   -0.0000000000  2.8231623075  1.4978228925
B   -0.0000000000  1.6438012050  2.9691406200
B   -0.0000000000  0.5896805475  0.7356588600
B   -0.0000000000  3.8772829650  3.7313046525
16
scale = 0.80000
Li  1.6564228080  0.8550033120  3.2373838480
Li  1.6564228080  3.9097577680  1.5273772320
Li  1.6564228080  1.5273772320  0.8550033120
Li  1.6564228080  3.2373838480  3.9097577680
B   2.3390979280  2.3823805440  2.3823805440
B   2.3390979280  0.0000000000  0.0000000000
B   0.9737476960  2.3823805440  2.3823805440
B   0.9737476960  0.0000000000  0.0000000000
B   -0.0000000000  3.1670833280  3.0113731280
B   -0.0000000000  1.5976777520  1.7533879520
B   -0.0000000000  3.9800582960  0.6289925840
B   -0.0000000000  0.7847027840  4.1357684960
B   -0.0000000000  3.0113731280  1.5976777520
B   -0.0000000000  1.7533879520  3.1670833280
B   -0.0000000000  0.6289925840  0.7847027840
B   -0.0000000000  4.1357684960  3.9800582960
16
scale = 0.85000
Li  1.7599492335  0.9084410190  3.4397203385
Li  1.7599492335  4.1541176285  1.6228383090
Li  1.7599492335  1.6228383090  0.9084410190
Li  1.7599492335  3.4397203385  4.1541176285
B   2.4852915485  2.5312793280  2.5312793280
B   2.4852915485  0.0000000000  0.0000000000
B   1.0346069270  2.5312793280  2.5312793280
B   1.0346069270  0.0000000000  0.0000000000
B   -0.0000000000  3.3650260360  3.1995839485
B   -0.0000000000  1.6975326115  1.8629746990
B   -0.0000000000  4.2288119395  0.6683046205
B   -0.0000000000  0.8337467080  4.3942540270
B   -0.0000000000  3.1995839485  1.6975326115
B   -0.0000000000  1.8629746990  3.3650260360
B   -0.0000000000  0.6683046205  0.8337467080
B   -0.0000000000  4.3942540270  4.2288119395
16
scale = 0.90000
Li  1.8634756590  0.9618787260  3.6420568290
Li  1.8634756590  4.3984774890  1.7182993860
Li  1.8634756590  1.7182993860  0.9618787260
Li  1.8634756590  3.6420568290  4.3984774890
B   2.6314851690  2.6801781120  2.6801781120
B   2.6314851690  0.0000000000  0.0000000000
B   1.0954661580  2.6801781120  2.6801781120
B   1.0954661580  0.0000000000  0.0000000000
B   -0.0000000000  3.5629687440  3.3877947690
B   -0.0000000000  1.7973874710  1.9725614460
B   -0.0000000000  4.4775655830  0.7076166570
B   -0.0000000000  0.8827906320  4.6527395580
B   -0.0000000000  3.3877947690  1.7973874710
B   -0.0000000000  1.9725614460  3.5629687440
B   -0.0000000000  0.7076166570  0.8827906320
B   -0.0000000000  4.6527395580  4.4775655830
16
scale = 0.95000
Li  1.9670020845  1.0153164330  3.8443933195
Li  1.9670020845  4.6428373495  1.8137604630
Li  1.9670020845  1.8137604630  1.0153164330
Li  1.9670020845  3.8443933195  4.6428373495
B   2.7776787895  2.8290768960  2.8290768960
B   2.7776787895  0.0000000000  0.0000000000
B   1.1563253890  2.8290768960  2.8290768960
B   1.1563253890  0.0000000000  0.0000000000
B   -0.0000000000  3.7609114520  3.5760055895
B   -0.0000000000  1.8972423305  2.0821481930
B   -0.0000000000  4.7263192265  0.7469286935
B   -0.0000000000  0.9318345560  4.9112250890
B   -0.0000000000  3.5760055895  1.8972423305
B   -0.0000000000  2.0821481930  3.7609114520
B   -0.0000000000  0.7469286935  0.9318345560
B   -0.0000000000  4.9112250890  4.7263192265
16
scale = 1.00000
Li  2.0705285100  1.0687541400  4.0467298100
Li  2.0705285100  4.8871972100  1.9092215400
Li  2.0705285100  1.9092215400  1.0687541400
Li  2.0705285100  4.0467298100  4.8871972100
B   2.9238724100  2.9779756800  2.9779756800
B   2.9238724100  0.0000000000  0.0000000000
B   1.2171846200  2.9779756800  2.9779756800
B   1.2171846200  0.0000000000  0.0000000000
B   -0.0000000000  3.9588541600  3.7642164100
B   -0.0000000000  1.9970971900  2.1917349400
B   -0.0000000000  4.9750728700  0.7862407300
B   -0.0000000000  0.9808784800  5.1697106200
B   -0.0000000000  3.7642164100  1.9970971900
B   -0.0000000000  2.1917349400  3.9588541600
B   -0.0000000000  0.7862407300  0.9808784800
B   -0.0000000000  5.1697106200  4.9750728700
16
scale = 1.05000
Li  2.1740549355  1.1221918470  4.2490663005
Li  2.1740549355  5.1315570705  2.0046826170
Li  2.1740549355  2.0046826170  1.1221918470
Li  2.1740549355  4.2490663005  5.1315570705
B   3.0700660305  3.1268744640  3.1268744640
B   3.0700660305  0.0000000000  0.0000000000
B   1.2780438510  3.1268744640  3.1268744640
B   1.2780438510  0.0000000000  0.0000000000
B   -0.0000000000  4.1567968680  3.9524272305
B   -0.0000000000  2.0969520495  2.3013216870
B   -0.0000000000  5.2238265135  0.8255527665
B   -0.0000000000  1.0299224040  5.4281961510
B   -0.0000000000  3.9524272305  2.0969520495
B   -0.0000000000  2.3013216870  4.1567968680
B   -0.0000000000  0.8255527665  1.0299224040
B   -0.0000000000  5.4281961510  5.2238265135
16
scale = 1.10000
Li  2.2775813610  1.1756295540  4.4514027910
Li  2.2775813610  5.3759169310  2.1001436940
Li  2.2775813610  2.1001436940  1.1756295540
Li  2.2775813610  4.4514027910  5.3759169310
B   3.2162596510  3.2757732480  3.2757732480
B   3.2162596510  0.0000000000  0.0000000000
B   1.3389030820  3.2757732480  3.2757732480
B   1.3389030820  0.0000000000  0.0000000000
B   -0.0000000000  4.3547395760  4.1406380510
B   -0.0000000000  2.1968069090  2.4109084340
B   -0.0000000000  5.4725801570  0.8648648030
B   -0.0000000000  1.0789663280  5.6866816820
B   -0.0000000000  4.1406380510  2.1968069090
B   -0.0000000000  2.4109084340  4.3547395760
B   -0.0000000000  0.8648648030  1.0789663280
B   -0.0000000000  5.6866816820  5.4725801570
16
scale = 1.15000
Li  2.3811077865  1.2290672610  4.6537392815
Li  2.3811077865  5.6202767915  2.1956047710
Li  2.3811077865  2.1956047710  1.2290672610
Li  2.3811077865  4.6537392815  5.6202767915
B   3.3624532715  3.4246720320  3.4246720320
B   3.3624532715  0.0000000000  0.0000000000
B   1.3997623130  3.4246720320  3.4246720320
B   1.3997623130  0.0000000000  0.0000000000
B   -0.0000000000  4.5526822840  4.3288488715
B   -0.0000000000  2.2966617685  2.5204951810
B   -0.0000000000  5.7213338005  0.9041768395
B   -0.0000000000  1.1280102520  5.9451672130
B   -0.0000000000  4.3288488715  2.2966617685
B   -0.0000000000  2.5204951810  4.5526822840
B   -0.0000000000  0.9041768395  1.1280102520
B   -0.0000000000  5.9451672130  5.7213338005
16
scale = 1.20000
Li  2.4846342120  1.2825049680  4.8560757720
Li  2.4846342120  5.8646366520  2.2910658480
Li  2.4846342120  2.2910658480  1.2825049680
Li  2.4846342120  4.8560757720  5.8646366520
B   3.5086468920  3.5735708160  3.5735708160
B   3.5086468920  0.0000000000  0.0000000000
B   1.4606215440  3.5735708160  3.5735708160
B   1.4606215440  0.0000000000  0.0000000000
B   -0.0000000000  4.7506249920  4.5170596920
B   -0.0000000000  2.3965166280  2.6300819280
B   -0.0000000000  5.9700874440  0.9434888760
B   -0.0000000000  1.1770541760  6.2036527440
B   -0.0000000000  4.5170596920  2.3965166280
B   -0.0000000000  2.6300819280  4.7506249920
B   -0.0000000000  0.9434888760  1.1770541760
B   -0.0000000000  6.2036527440  5.9700874440
16
scale = 1.25000
Li  2.5881606375  1.3359426750  5.0584122625
Li  2.5881606375  6.1089965125  2.3865269250
Li  2.5881606375  2.3865269250  1.3359426750
Li  2.5881606375  5.0584122625  6.1089965125
B   3.6548405125  3.7224696000  3.7224696000
B   3.6548405125  0.0000000000  0.0000000000
B   1.5214807750  3.7224696000  3.7224696000
B   1.5214807750  0.0000000000  0.0000000000
B   -0.0000000000  4.9485677000  4.7052705125
B   -0.0000000000  2.4963714875  2.7396686750
B   -0.0000000000  6.2188410875  0.9828009125
B   -0.0000000000  1.2260981000  6.4621382750
B   -0.0000000000  4.7052705125  2.4963714875
B   -0.0000000000  2.7396686750  4.9485677000
B   -0.0000000000  0.9828009125  1.2260981000
B   -0.0000000000  6.4621382750  6.2188410875
16
scale = 1.30000
Li  2.6916870630  1.3893803820  5.2607487530
Li  2.6916870630  6.3533563730  2.4819880020
Li  2.6916870630  2.4819880020  1.3893803820
Li  2.6916870630  5.2607487530  6.3533563730
B   3.8010341330  3.8713683840  3.8713683840
B   3.8010341330  0.0000000000  0.0000000000
B   1.5823400060  3.8713683840  3.8713683840
B   1.5823400060  0.0000000000  0.0000000000
B   -0.0000000000  5.1465104080  4.8934813330
B   -0.0000000000  2.5962263470  2.8492554220
B   -0.0000000000  6.4675947310  1.0221129490
B   -0.0000000000  1.2751420240  6.7206238060
B   -0.0000000000  4.8934813330  2.5962263470
B   -0.0000000000  2.8492554220  5.1465104080
B   -0.0000000000  1.0221129490  1.2751420240
B   -0.0000000000  6.7206238060  6.4675947310
16
scale = 1.35000
Li  2.7952134885  1.4428180890  5.4630852435
Li  2.7952134885  6.5977162335  2.5774490790
Li  2.7952134885  2.5774490790  1.4428180890
Li  2.7952134885  5.4630852435  6.5977162335
B   3.9472277535  4.0202671680  4.0202671680
B   3.9472277535  0.0000000000  0.0000000000
B   1.6431992370  4.0202671680  4.0202671680
B   1.6431992370  0.0000000000  0.0000000000
B   -0.0000000000  5.3444531160  5.0816921535
B   -0.0000000000  2.6960812065  2.9588421690
B   -0.0000000000  6.7163483745  1.0614249855
B   -0.0000000000  1.3241859480  6.9791093370
B   -0.0000000000  5.0816921535  2.6960812065
B   -0.0000000000  2.9588421690  5.3444531160
B   -0.0000000000  1.0614249855  1.3241859480
B   -0.0000000000  6.9791093370  6.7163483745
16
scale = 1.40000
Li  2.8987399140  1.4962557960  5.6654217340
Li  2.8987399140  6.8420760940  2.6729101560
Li  2.8987399140  2.6729101560  1.4962557960
Li  2.8987399140  5.6654217340  6.8420760940
B   4.0934213740  4.1691659520  4.1691659520
B   4.0934213740  0.0000000000  0.0000000000
B   1.7040584680  4.1691659520  4.1691659520
B   1.7040584680  0.0000000000  0.0000000000
B   -0.0000000000  5.5423958240  5.2699029740
B   -0.0000000000  2.7959360660  3.0684289160
B   -0.0000000000  6.9651020180  1.1007370220
B   -0.0000000000  1.3732298720  7.2375948680
B   -0.0000000000  5.2699029740  2.7959360660
B   -0.0000000000  3.0684289160  5.5423958240
B   -0.0000000000  1.1007370220  1.3732298720
B   -0.0000000000  7.2375948680  6.9651020180
16
scale = 1.45000
Li  3.0022663395  1.5496935030  5.8677582245
Li  3.0022663395  7.0864359545  2.7683712330
Li  3.0022663395  2.7683712330  1.5496935030
Li  3.0022663395  5.8677582245  7.0864359545
B   4.2396149945  4.3180647360  4.3180647360
B   4.2396149945  0.0000000000  0.0000000000
B   1.7649176990  4.3180647360  4.3180647360
B   1.7649176990  0.0000000000  0.0000000000
B   -0.0000000000  5.7403385320  5.4581137945
B   -0.0000000000  2.8957909255  3.1780156630
B   -0.0000000000  7.2138556615  1.1400490585
B   -0.0000000000  1.4222737960  7.4960803990
B   -0.0000000000  5.4581137945  2.8957909255
B   -0.0000000000  3.1780156630  5.7403385320
B   -0.0000000000  1.1400490585  1.4222737960
B   -0.0000000000  7.4960803990  7.2138556615
16
scale = 1.50000
Li  3.1057927650  1.6031312100  6.0700947150
Li  3.1057927650  7.3307958150  2.8638323100
Li  3.1057927650  2.8638323100  1.6031312100
Li  3.1057927650  6.0700947150  7.3307958150
B   4.3858086150  4.4669635200  4.4669635200
B   4.3858086150  0.0000000000  0.0000000000
B   1.8257769300  4.4669635200  4.4669635200
B   1.8257769300  0.0000000000  0.0000000000
B   -0.0000000000  5.9382812400  5.6463246150
B   -0.0000000000  2.9956457850  3.2876024100
B   -0.0000000000  7.4626093050  1.1793610950
B   -0.0000000000  1.4713177200  7.7545659300
B   -0.0000000000  5.6463246150  2.9956457850
B   -0.0000000000  3.2876024100  5.9382812400
B   -0.0000000000  1.1793610950  1.4713177200
B   -0.0000000000  7.7545659300  7.4626093050
16
scale = 1.55000
Li  3.2093191905  1.6565689170  6.2724312055
Li  3.2093191905  7.5751556755  2.9592933870
Li  3.2093191905  2.9592933870  1.6565689170
Li  3.2093191905  6.2724312055  7.5751556755
B   4.5320022355  4.6158623040  4.6158623040
B   4.5320022355  0.0000000000  0.0000000000
B   1.8866361610  4.6158623040  4.6158623040
B   1.8866361610  0.0000000000  0.0000000000
B   -0.0000000000  6.1362239480  5.8345354355
B   -0.0000000000  3.0955006445  3.3971891570
B   -0.0000000000  7.7113629485  1.2186731315
B   -0.0000000000  1.5203616440  8.0130514610
B   -0.0000000000  5.8345354355  3.0955006445
B   -0.0000000000  3.3971891570  6.1362239480
B   -0.0000000000  1.2186731315  1.5203616440
B   -0.0000000000  8.0130514610  7.7113629485
16
scale = 1.60000
Li  3.3128456160  1.7100066240  6.4747676960
Li  3.3128456160  7.8195155360  3.0547544640
Li  3.3128456160  3.0547544640  1.7100066240
Li  3.3128456160  6.4747676960  7.8195155360
B   4.6781958560  4.7647610880  4.7647610880
B   4.6781958560  0.0000000000  0.0000000000
B   1.9474953920  4.7647610880  4.7647610880
B   1.9474953920  0.0000000000  0.0000000000
B   -0.0000000000  6.3341666560  6.0227462560
B   -0.0000000000  3.1953555040  3.5067759040
B   -0.0000000000  7.9601165920  1.2579851680
B   -0.0000000000  1.5694055680  8.2715369920
B   -0.0000000000  6.0227462560  3.1953555040
B   -0.0000000000  3.5067759040  6.3341666560
B   -0.0000000000  1.2579851680  1.5694055680
B   -0.0000000000  8.2715369920  7.9601165920
16
scale = 1.65000
Li  3.4163720415  1.7634443310  6.6771041865
Li  3.4163720415  8.0638753965  3.1502155410
Li  3.4163720415  3.1502155410  1.7634443310
Li  3.4163720415  6.6771041865  8.0638753965
B   4.8243894765  4.9136598720  4.9136598720
B   4.8243894765  0.0000000000  0.0000000000
B   2.0083546230  4.9136598720  4.9136598720
B   2.0083546230  0.0000000000  0.0000000000
B   -0.0000000000  6.5321093640  6.2109570765
B   -0.0000000000  3.2952103635  3.6163626510
B   -0.0000000000  8.2088702355  1.2972972045
B   -0.0000000000  1.6184494920  8.5300225230
B   -0.0000000000  6.2109570765  3.2952103635
B   -0.0000000000  3.6163626510  6.5321093640
B   -0.0000000000  1.2972972045  1.6184494920
B   -0.0000000000  8.5300225230  8.2088702355
16
scale = 1.70000
Li  3.5198984670  1.8168820380  6.8794406770
Li  3.5198984670  8.3082352570  3.2456766180
Li  3.5198984670  3.2456766180  1.8168820380
Li  3.5198984670  6.8794406770  8.3082352570
B   4.9705830970  5.0625586560  5.0625586560
B   4.9705830970  0.0000000000  0.0000000000
B   2.0692138540  5.0625586560  5.0625586560
B   2.0692138540  0.0000000000  0.0000000000
B   -0.0000000000  6.7300520720  6.3991678970
B   -0.0000000000  3.3950652230  3.7259493980
B   -0.0000000000  8.4576238790  1.3366092410
B   -0.0000000000  1.6674934160  8.7885080540
B   -0.0000000000  6.3991678970  3.3950652230
B   -0.0000000000  3.7259493980  6.7300520720
B   -0.0000000000  1.3366092410  1.6674934160
B   -0.0000000000  8.7885080540  8.4576238790
16
scale = 1.75000
Li  3.6234248925  1.8703197450  7.0817771675
Li  3.6234248925  8.5525951175  3.3411376950
Li  3.6234248925  3.3411376950  1.8703197450
Li  3.6234248925  7.0817771675  8.5525951175
B   5.1167767175  5.2114574400  5.2114574400
B   5.1167767175  0.0000000000  0.0000000000
B   2.1300730850  5.2114574400  5.2114574400
B   2.1300730850  0.0000000000  0.0000000000
B   -0.0000000000  6.9279947800  6.5873787175
B   -0.0000000000  3.4949200825  3.8355361450
B   -0.0000000000  8.7063775225  1.3759212775
B   -0.0000000000  1.7165373400  9.0469935850
B   -0.0000000000  6.5873787175  3.4949200825
B   -0.0000000000  3.8355361450  6.9279947800
B   -0.0000000000  1.3759212775  1.7165373400
B   -0.0000000000  9.0469935850  8.7063775225
16
scale = 1.80000
Li  3.7269513180  1.9237574520  7.2841136580
Li  3.7269513180  8.7969549780  3.4365987720
Li  3.7269513180  3.4365987720  1.9237574520
Li  3.7269513180  7.2841136580  8.7969549780
B   5.2629703380  5.3603562240  5.3603562240
B   5.2629703380  0.0000000000  0.0000000000
B   2.1909323160  5.3603562240  5.3603562240
B   2.1909323160  0.0000000000  0.0000000000
B   -0.0000000000  7.1259374880  6.7755895380
B   -0.0000000000  3.5947749420  3.9451228920
B   -0.0000000000  8.9551311660  1.4152333140
B   -0.0000000000  1.7655812640  9.3054791160
B   -0.0000000000  6.7755895380  3.5947749420
B   -0.0000000000  3.9451228920  7.1259374880
B   -0.0000000000  1.4152333140  1.7655812640
B   -0.0000000000  9.3054791160  8.9551311660
16
scale = 1.85000
Li  3.8304777435  1.9771951590  7.4864501485
Li  3.8304777435  9.0413148385  3.5320598490
Li  3.8304777435  3.5320598490  1.9771951590
Li  3.8304777435  7.4864501485  9.0413148385
B   5.4091639585  5.5092550080  5.5092550080
B   5.4091639585  0.0000000000  0.0000000000
B   2.2517915470  5.5092550080  5.5092550080
B   2.2517915470  0.0000000000  0.0000000000
B   -0.0000000000  7.3238801960  6.9638003585
B   -0.0000000000  3.6946298015  4.0547096390
B   -0.0000000000  9.2038848095  1.4545453505
B   -0.0000000000  1.8146251880  9.5639646470
B   -0.0000000000  6.9638003585  3.6946298015
B   -0.0000000000  4.0547096390  7.3238801960
B   -0.0000000000  1.4545453505  1.8146251880
B   -0.0000000000  9.5639646470  9.2038848095
16
scale = 1.90000
Li  3.9340041690  2.0306328660  7.6887866390
Li  3.9340041690  9.2856746990  3.6275209260
Li  3.9340041690  3.6275209260  2.0306328660
Li  3.9340041690  7.6887866390  9.2856746990
B   5.5553575790  5.6581537920  5.6581537920
B   5.5553575790  0.0000000000  0.0000000000
B   2.3126507780  5.6581537920  5.6581537920
B   2.3126507780  0.0000000000  0.0000000000
B   -0.0000000000  7.5218229040  7.1520111790
B   -0.0000000000  3.7944846610  4.1642963860
B   -0.0000000000  9.4526384530  1.4938573870
B   -0.0000000000  1.8636691120  9.8224501780
B   -0.0000000000  7.1520111790  3.7944846610
B   -0.0000000000  4.1642963860  7.5218229040
B   -0.0000000000  1.4938573870  1.8636691120
B   -0.0000000000  9.8224501780  9.4526384530
16
scale = 1.95000
Li  4.0375305945  2.0840705730  7.8911231295
Li  4.0375305945  9.5300345595  3.7229820030
Li  4.0375305945  3.7229820030  2.0840705730
Li  4.0375305945  7.8911231295  9.5300345595
B   5.7015511995  5.8070525760  5.8070525760
B   5.7015511995  0.0000000000  0.0000000000
B   2.3735100090  5.8070525760  5.8070525760
B   2.3735100090  0.0000000000  0.0000000000
B   -0.0000000000  7.7197656120  7.3402219995
B   -0.0000000000  3.8943395205  4.2738831330
B   -0.0000000000  9.7013920965  1.5331694235
B   -0.0000000000  1.9127130360  10.0809357090
B   -0.0000000000  7.3402219995  3.8943395205
B   -0.0000000000  4.2738831330  7.7197656120
B   -0.0000000000  1.5331694235  1.9127130360
B   -0.0000000000  10.0809357090  9.7013920965
16
scale = 2.00000
Li  4.1410570200  2.1375082800  8.0934596200
Li  4.1410570200  9.7743944200  3.8184430800
Li  4.1410570200  3.8184430800  2.1375082800
Li  4.1410570200  8.0934596200  9.7743944200
B   5.8477448200  5.9559513600  5.9559513600
B   5.8477448200  0.0000000000  0.0000000000
B   2.4343692400  5.9559513600  5.9559513600
B   2.4343692400  0.0000000000  0.0000000000
B   -0.0000000000  7.9177083200  7.5284328200
B   -0.0000000000  3.9941943800  4.3834698800
B   -0.0000000000  9.9501457400  1.5724814600
B   -0.0000000000  1.9617569600  10.3394212400
B   -0.0000000000  7.5284328200  3.9941943800
B   -0.0000000000  4.3834698800  7.9177083200
B   -0.0000000000  1.5724814600  1.9617569600
B   -0.0000000000  10.3394212400  9.9501457400
16
scale = 2.05000
Li  4.2445834455  2.1909459870  8.2957961105
Li  4.2445834455  10.0187542805  3.9139041570
Li  4.2445834455  3.9139041570  2.1909459870
Li  4.2445834455  8.2957961105  10.0187542805
B   5.9939384405  6.1048501440  6.1048501440
B   5.9939384405  0.0000000000  0.0000000000
B   2.4952284710  6.1048501440  6.1048501440
B   2.4952284710  0.0000000000  0.0000000000
B   -0.0000000000  8.1156510280  7.7166436405
B   -0.0000000000  4.0940492395  4.4930566270
B   -0.0000000000  10.1988993835  1.6117934965
B   -0.0000000000  2.0108008840  10.5979067710
B   -0.0000000000  7.7166436405  4.0940492395
B   -0.0000000000  4.4930566270  8.1156510280
B   -0.0000000000  1.6117934965  2.0108008840
B   -0.0000000000  10.5979067710  10.1988993835
16
scale = 2.10000
Li  4.3481098710  2.2443836940  8.4981326010
Li  4.3481098710  10.2631141410  4.0093652340
Li  4.3481098710  4.0093652340  2.2443836940
Li  4.3481098710  8.4981326010  10.2631141410
B   6.1401320610  6.2537489280  6.2537489280
B   6.1401320610  0.0000000000  0.0000000000
B   2.5560877020  6.2537489280  6.2537489280
B   2.5560877020  0.0000000000  0.0000000000
B   -0.0000000000  8.3135937360  7.9048544610
B   -0.0000000000  4.1939040990  4.6026433740
B   -0.0000000000  10.4476530270  1.6511055330
B   -0.0000000000  2.0598448080  10.8563923020
B   -0.0000000000  7.9048544610  4.1939040990
B   -0.0000000000  4.6026433740  8.3135937360
B   -0.0000000000  1.6511055330  2.0598448080
B   -0.0000000000  10.8563923020  10.4476530270
16
scale = 2.15000
Li  4.4516362965  2.2978214010  8.7004690915
Li  4.4516362965  10.5074740015  4.1048263110
Li  4.4516362965  4.1048263110  2.2978214010
Li  4.4516362965  8.7004690915  10.5074740015
B   6.2863256815  6.4026477120  6.4026477120
B   6.2863256815  0.0000000000  0.0000000000
B   2.6169469330  6.4026477120  6.4026477120
B   2.6169469330  0.0000000000  0.0000000000
B   -0.0000000000  8.5115364440  8.0930652815
B   -0.0000000000  4.2937589585  4.7122301210
B   -0.0000000000  10.6964066705  1.6904175695
B   -0.0000000000  2.1088887320  11.1148778330
B   -0.0000000000  8.0930652815  4.2937589585
B   -0.0000000000  4.7122301210  8.5115364440
B   -0.0000000000  1.6904175695  2.1088887320
B   -0.0000000000  11.1148778330  10.6964066705
16
scale = 2.20000
Li  4.5551627220  2.3512591080  8.9028055820
Li  4.5551627220  10.7518338620  4.2002873880
Li  4.5551627220  4.2002873880  2.3512591080
Li  4.5551627220  8.9028055820  10.7518338620
B   6.4325193020  6.5515464960  6.5515464960
B   6.4325193020  0.0000000000  0.0000000000
B   2.6778061640  6.5515464960  6.5515464960
B   2.6778061640  0.0000000000  0.0000000000
B   -0.0000000000  8.7094791520  8.2812761020
B   -0.0000000000  4.3936138180  4.8218168680
B   -0.0000000000  10.9451603140  1.7297296060
B   -0.0000000000  2.1579326560  11.3733633640
B   -0.0000000000  8.2812761020  4.3936138180
B   -0.0000000000  4.8218168680  8.7094791520
B   -0.0000000000  1.7297296060  2.1579326560
B   -0.0000000000  11.3733633640  10.9451603140
16
scale = 2.25000
Li  4.6586891475  2.4046968150  9.1051420725
Li  4.6586891475  10.9961937225  4.2957484650
Li  4.6586891475  4.2957484650  2.4046968150
Li  4.6586891475  9.1051420725  10.9961937225
B   6.5787129225  6.7004452800  6.7004452800
B   6.5787129225  0.0000000000  0.0000000000
B   2.7386653950  6.7004452800  6.7004452800
B   2.7386653950  0.0000000000  0.0000000000
B   -0.0000000000  8.9074218600  8.4694869225
B   -0.0000000000  4.4934686775  4.9314036150
B   -0.0000000000  11.1939139575  1.7690416425
B   -0.0000000000  2.2069765800  11.6318488950
B   -0.0000000000  8.4694869225  4.4934686775
B   -0.0000000000  4.9314036150  8.9074218600
B   -0.0000000000  1.7690416425  2.2069765800
B   -0.0000000000  11.6318488950  11.1939139575
16
scale = 2.30000
Li  4.7622155730  2.4581345220  9.3074785630
Li  4.7622155730  11.2405535830  4.3912095420
Li  4.7622155730  4.3912095420  2.4581345220
Li  4.7622155730  9.3074785630  11.2405535830
B   6.7249065430  6.8493440640  6.8493440640
B   6.7249065430  0.0000000000  0.0000000000
B   2.7995246260  6.8493440640  6.8493440640
B   2.7995246260  0.0000000000  0.0000000000
B   -0.0000000000  9.1053645680  8.6576977430
B   -0.0000000000  4.5933235370  5.0409903620
B   -0.0000000000  11.4426676010  1.8083536790
B   -0.0000000000  2.2560205040  11.8903344260
B   -0.0000000000  8.6576977430  4.5933235370
B   -0.0000000000  5.0409903620  9.1053645680
B   -0.0000000000  1.8083536790  2.2560205040
B   -0.0000000000  11.8903344260  11.4426676010
16
scale = 2.35000
Li  4.8657419985  2.5115722290  9.5098150535
Li  4.8657419985  11.4849134435  4.4866706190
Li  4.8657419985  4.4866706190  2.5115722290
Li  4.8657419985  9.5098150535  11.4849134435
B   6.8711001635  6.9982428480  6.9982428480
B   6.8711001635  0.0000000000  0.0000000000
B   2.8603838570  6.9982428480  6.9982428480
B   2.8603838570  0.0000000000  0.0000000000
B   -0.0000000000  9.3033072760  8.8459085635
B   -0.0000000000  4.6931783965  5.1505771090
B   -0.0000000000  11.6914212445  1.8476657155
B   -0.0000000000  2.3050644280  12.1488199570
B   -0.0000000000  8.8459085635  4.6931783965
B   -0.0000000000  5.1505771090  9.3033072760
B   -0.0000000000  1.8476657155  2.3050644280
B   -0.0000000000  12.1488199570  11.6914212445
16
scale = 2.40000
Li  4.9692684240  2.5650099360  9.7121515440
Li  4.9692684240  11.7292733040  4.5821316960
Li  4.9692684240  4.5821316960  2.5650099360
Li  4.9692684240  9.7121515440  11.7292733040
B   7.0172937840  7.1471416320  7.1471416320
B   7.0172937840  0.0000000000  0.0000000000
B   2.9212430880  7.1471416320  7.1471416320
B   2.9212430880  0.0000000000  0.0000000000
B   -0.0000000000  9.5012499840  9.0341193840
B   -0.0000000000  4.7930332560  5.2601638560
B   -0.0000000000  11.9401748880  1.8869777520
B   -0.0000000000  2.3541083520  12.4073054880
B   -0.0000000000  9.0341193840  4.7930332560
B   -0.0000000000  5.2601638560  9.5012499840
B   -0.0000000000  1.8869777520  2.3541083520
B   -0.0000000000  12.4073054880  11.9401748880
16
scale = 2.45000
Li  5.0727948495  2.6184476430  9.9144880345
Li  5.0727948495  11.9736331645  4.6775927730
Li  5.0727948495  4.6775927730  2.6184476430
Li  5.0727948495  9.9144880345  11.9736331645
B   7.1634874045  7.2960404160  7.2960404160
B   7.1634874045  0.0000000000  0.0000000000
B   2.9821023190  7.2960404160  7.2960404160
B   2.9821023190  0.0000000000  0.0000000000
B   -0.0000000000  9.6991926920  9.2223302045
B   -0.0000000000  4.8928881155  5.3697506030
B   -0.0000000000  12.1889285315  1.9262897885
B   -0.0000000000  2.4031522760  12.6657910190
B   -0.0000000000  9.2223302045  4.8928881155
B   -0.0000000000  5.3697506030  9.6991926920
B   -0.0000000000  1.9262897885  2.4031522760
B   -0.0000000000  12.6657910190  12.1889285315
