8
scale = 0.75000
Li  1.5817778250  1.7349721875  0.0000000000
Li  3.8962026750  0.5783240625  0.0000000000
Li  4.2812170575  1.7349721875  5.0786557500
Li  1.1967634425  0.5783240625  5.0786557500
B   -0.0000000000  1.1566481250  0.0000000000
B   0.0000000000  0.0000000000  0.0000000000
B   2.6588473950  1.7349721875  5.0786557500
B   2.8191331050  0.5783240625  5.0786557500
8
scale = 0.80000
Li  1.6872296800  1.8506370000  0.0000000000
Li  4.1559495200  0.6168790000  0.0000000000
Li  4.5666315280  1.8506370000  5.4172328000
Li  1.2765476720  0.6168790000  5.4172328000
B   -0.0000000000  1.2337580000  0.0000000000
B   0.0000000000  0.0000000000  0.0000000000
B   2.8361038880  1.8506370000  5.4172328000
B   3.0070753120  0.6168790000  5.4172328000
8
scale = 0.85000
Li  1.7926815350  1.9663018125  0.0000000000
Li  4.4156963650  0.6554339375  0.0000000000
Li  4.8520459985  1.9663018125  5.7558098500
Li  1.3563319015  0.6554339375  5.7558098500
B   -0.0000000000  1.3108678750  0.0000000000
B   0.0000000000  0.0000000000  0.0000000000
B   3.0133603810  1.9663018125  5.7558098500
B   3.1950175190  0.6554339375  5.7558098500
8
scale = 0.90000
Li  1.8981333900  2.0819666250  0.0000000000
Li  4.6754432100  0.6939888750  0.0000000000
Li  5.1374604690  2.0819666250  6.0943869000
Li  1.4361161310  0.6939888750  6.0943869000
B   -0.0000000000  1.3879777500  0.0000000000
B   0.0000000000  0.0000000000  0.0000000000
B   3.1906168740  2.0819666250  6.0943869000
B   3.3829597260  0.6939888750  6.0943869000
8
scale = 0.95000
Li  2.0035852450  2.1976314375  0.0000000000
Li  4.9351900550  0.7325438125  0.0000000000
Li  5.4228749395  2.1976314375  6.4329639500
Li  1.5159003605  0.7325438125  6.4329639500
B   -0.0000000000  1.4650876250  0.0000000000
B   0.0000000000  0.0000000000  0.0000000000
B   3.3678733670  2.1976314375  6.4329639500
B   3.5709019330  0.7325438125  6.4329639500
8
scale = 1.00000
Li  2.1090371000  2.3132962500  0.0000000000
Li  5.1949369000  0.7710987500  0.0000000000
Li  5.7082894100  2.3132962500  6.7715410000
Li  1.5956845900  0.7710987500  6.7715410000
B   -0.0000000000  1.5421975000  0.0000000000
B   0.0000000000  0.0000000000  0.0000000000
B   3.5451298600  2.3132962500  6.7715410000
B   3.7588441400  0.7710987500  6.7715410000
8
scale = 1.05000
Li  2.2144889550  2.4289610625  0.0000000000
Li  5.4546837450  0.8096536875  0.0000000000
Li  5.9937038805  2.4289610625  7.1101180500
Li  1.6754688195  0.8096536875  7.1101180500
B   -0.0000000000  1.6193073750  0.0000000000
B   0.0000000000  0.0000000000  0.0000000000
B   3.7223863530  2.4289610625  7.1101180500
B   3.9467863470  0.8096536875  7.1101180500
8
scale = 1.10000
Li  2.3199408100  2.5446258750  0.0000000000
Li  5.7144305900  0.8482086250  0.0000000000
Li  6.2791183510  2.5446258750  7.4486951000
Li  1.7552530490  0.8482086250  7.4486951000
B   -0.0000000000  1.6964172500  0.0000000000
B   0.0000000000  0.0000000000  0.0000000000
B   3.8996428460  2.5446258750  7.4486951000
B   4.1347285540  0.8482086250  7.4486951000
8
scale = 1.15000
Li  2.4253926650  2.6602906875  0.0000000000
Li  5.9741774350  0.8867635625  0.0000000000
Li  6.5645328215  2.6602906875  7.7872721500
Li  1.8350372785  0.8867635625  7.7872721500
B   -0.0000000000  1.7735271250  0.0000000000
B   0.0000000000  0.0000000000  0.0000000000
B   4.0768993390  2.6602906875  7.7872721500
B   4.3226707610  0.8867635625  7.7872721500
8
scale = 1.20000
Li  2.5308445200  2.7759555000  0.0000000000
Li  6.2339242800  0.9253185000  0.0000000000
Li  6.8499472920  2.7759555000  8.1258492000
Li  1.9148215080  0.9253185000  8.1258492000
B   -0.0000000000  1.8506370000  0.0000000000
B   0.0000000000  0.0000000000  0.0000000000
B   4.2541558320  2.7759555000  8.1258492000
B   4.5106129680  0.9253185000  8.1258492000
8
scale = 1.25000
Li  2.6362963750  2.8916203125  0.0000000000
Li  6.4936711250  0.9638734375  0.0000000000
Li  7.1353617625  2.8916203125  8.4644262500
Li  1.9946057375  0.9638734375  8.4644262500
B   -0.0000000000  1.9277468750  0.0000000000
B   0.0000000000  0.0000000000  0.0000000000
B   4.4314123250  2.8916203125  8.4644262500
B   4.6985551750  0.9638734375  8.4644262500
8
scale = 1.30000
Li  2.7417482300  3.0072851250  0.0000000000
Li  6.7534179700  1.0024283750  0.0000000000
Li  7.4207762330  3.0072851250  8.8030033000
Li  2.0743899670  1.0024283750  8.8030033000
B   -0.0000000000  2.0048567500  0.0000000000
B   0.0000000000  0.0000000000  0.0000000000
B   4.6086688180  3.0072851250  8.8030033000
B   4.8864973820  1.0024283750  8.8030033000
8
scale = 1.35000
Li  2.8472000850  3.1229499375  0.0000000000
Li  7.0131648150  1.0409833125  0.0000000000
Li  7.7061907035  3.1229499375  9.1415803500
Li  2.1541741965  1.0409833125  9.1415803500
B   -0.0000000000  2.0819666250  0.0000000000
B   0.0000000000  0.0000000000  0.0000000000
B   4.7859253110  3.1229499375  9.1415803500
B   5.0744395890  1.0409833125  9.1415803500
8
scale = 1.40000
Li  2.9526519400  3.2386147500  0.0000000000
Li  7.2729116600  1.0795382500  0.0000000000
Li  7.9916051740  3.2386147500  9.4801574000
Li  2.2339584260  1.0795382500  9.4801574000
B   -0.0000000000  2.1590765000  0.0000000000
B   0.0000000000  0.0000000000  0.0000000000
B   4.9631818040  3.2386147500  9.4801574000
B   5.2623817960  1.0795382500  9.4801574000
8
scale = 1.45000
Li  3.0581037950  3.3542795625  0.0000000000
Li  7.5326585050  1.1180931875  0.0000000000
Li  8.2770196445  3.3542795625  9.8187344500
Li  2.3137426555  1.1180931875  9.8187344500
B   -0.0000000000  2.2361863750  0.0000000000
B   0.0000000000  0.0000000000  0.0000000000
B   5.1404382970  3.3542795625  9.8187344500
B   5.4503240030  1.1180931875  9.8187344500
8
scale = 1.50000
Li  3.1635556500  3.4699443750  0.0000000000
Li  7.7924053500  1.1566481250  0.0000000000
Li  8.5624341150  3.4699443750  10.1573115000
Li  2.3935268850  1.1566481250  10.1573115000
B   -0.0000000000  2.3132962500  0.0000000000
B   0.0000000000  0.0000000000  0.0000000000
B   5.3176947900  3.4699443750  10.1573115000
B   5.6382662100  1.1566481250  10.1573115000
8
scale = 1.55000
Li  3.2690075050  3.5856091875  0.0000000000
Li  8.0521521950  1.1952030625  0.0000000000
Li  8.8478485855  3.5856091875  10.4958885500
Li  2.4733111145  1.1952030625  10.4958885500
B   -0.0000000000  2.3904061250  0.0000000000
B   0.0000000000  0.0000000000  0.0000000000
B   5.4949512830  3.5856091875  10.4958885500
B   5.8262084170  1.1952030625  10.4958885500
8
scale = 1.60000
Li  3.3744593600  3.7012740000  0.0000000000
Li  8.3118990400  1.2337580000  0.0000000000
Li  9.1332630560  3.7012740000  10.8344656000
Li  2.5530953440  1.2337580000  10.8344656000
B   -0.0000000000  2.4675160000  0.0000000000
B   0.0000000000  0.0000000000  0.0000000000
B   5.6722077760  3.7012740000  10.8344656000
B   6.0141506240  1.2337580000  10.8344656000
8
scale = 1.65000
Li  3.4799112150  3.8169388125  0.0000000000
Li  8.5716458850  1.2723129375  0.0000000000
Li  9.4186775265  3.8169388125  11.1730426500
Li  2.6328795735  1.2723129375  11.1730426500
B   -0.0000000000  2.5446258750  0.0000000000
B   0.0000000000  0.0000000000  0.0000000000
B   5.8494642690  3.8169388125  11.1730426500
B   6.2020928310  1.2723129375  11.1730426500
8
scale = 1.70000
Li  3.5853630700  3.9326036250  0.0000000000
Li  8.8313927300  1.3108678750  0.0000000000
Li  9.7040919970  3.9326036250  11.5116197000
Li  2.7126638030  1.3108678750  11.5116197000
B   -0.0000000000  2.6217357500  0.0000000000
B   0.0000000000  0.0000000000  0.0000000000
B   6.0267207620  3.9326036250  11.5116197000
B   6.3900350380  1.3108678750  11.5116197000
8
scale = 1.75000
Li  3.6908149250  4.0482684375  0.0000000000
Li  9.0911395750  1.3494228125  0.0000000000
Li  9.9895064675  4.0482684375  11.8501967500
Li  2.7924480325  1.3494228125  11.8501967500
B   -0.0000000000  2.6988456250  0.0000000000
B   0.0000000000  0.0000000000  0.0000000000
B   6.2039772550  4.0482684375  11.8501967500
B   6.5779772450  1.3494228125  11.8501967500
8
scale = 1.80000
Li  3.7962667800  4.1639332500  0.0000000000
Li  9.3508864200  1.3879777500  0.0000000000
Li  10.2749209380  4.1639332500  12.1887738000
Li  2.8722322620  1.3879777500  12.1887738000
B   -0.0000000000  2.7759555000  0.0000000000
B   0.0000000000  0.0000000000  0.0000000000
B   6.3812337480  4.1639332500  12.1887738000
B   6.7659194520  1.3879777500  12.1887738000
8
scale = 1.85000
Li  3.9017186350  4.2795980625  0.0000000000
Li  9.6106332650  1.4265326875  0.0000000000
Li  10.5603354085  4.2795980625  12.5273508500
Li  2.9520164915  1.4265326875  12.5273508500
B   -0.0000000000  2.8530653750  0.0000000000
B   0.0000000000  0.0000000000  0.0000000000
B   6.5584902410  4.2795980625  12.5273508500
B   6.9538616590  1.4265326875  12.5273508500
8
scale = 1.90000
Li  4.0071704900  4.3952628750  0.0000000000
Li  9.8703801100  1.4650876250  0.0000000000
Li  10.8457498790  4.3952628750  12.8659279000
Li  3.0318007210  1.4650876250  12.8659279000
B   -0.0000000000  2.9301752500  0.0000000000
B   0.0000000000  0.0000000000  0.0000000000
B   6.7357467340  4.3952628750  12.8659279000
B   7.1418038660  1.4650876250  12.8659279000
8
scale = 1.95000
Li  4.1126223450  4.5109276875  0.0000000000
Li  10.1301269550  1.5036425625  0.0000000000
Li  11.1311643495  4.5109276875  13.2045049500
Li  3.1115849505  1.5036425625  13.2045049500
B   -0.0000000000  3.0072851250  0.0000000000
B   0.0000000000  0.0000000000  0.0000000000
B   6.9130032270  4.5109276875  13.2045049500
B   7.3297460730  1.5036425625  13.2045049500
8
scale = 2.00000
Li  4.2180742000  4.6265925000  0.0000000000
Li  10.3898738000  1.5421975000  0.0000000000
Li  11.4165788200  4.6265925000  13.5430820000
Li  3.1913691800  1.5421975000  13.5430820000
B   -0.0000000000  3.0843950000  0.0000000000
B   0.0000000000  0.0000000000  0.0000000000
B   7.0902597200  4.6265925000  13.5430820000
B   7.5176882800  1.5421975000  13.5430820000
8
scale = 2.05000
Li  4.3235260550  4.7422573125  0.0000000000
Li  10.6496206450  1.5807524375  0.0000000000
Li  11.7019932905  4.7422573125  13.8816590500
Li  3.2711534095  1.5807524375  13.8816590500
B   -0.0000000000  3.1615048750  0.0000000000
B   0.0000000000  0.0000000000  0.0000000000
B   7.2675162130  4.7422573125  13.8816590500
B   7.7056304870  1.5807524375  13.8816590500
8
scale = 2.10000
Li  4.4289779100  4.8579221250  0.0000000000
Li  10.9093674900  1.6193073750  0.0000000000
Li  11.9874077610  4.8579221250  14.2202361000
Li  3.3509376390  1.6193073750  14.2202361000
B   -0.0000000000  3.2386147500  0.0000000000
B   0.0000000000  0.0000000000  0.0000000000
B   7.4447727060  4.8579221250  14.2202361000
B   7.8935726940  1.6193073750  14.2202361000
8
scale = 2.15000
Li  4.5344297650  4.9735869375  0.0000000000
Li  11.1691143350  1.6578623125  0.0000000000
Li  12.2728222315  4.9735869375  14.5588131500
Li  3.4307218685  1.6578623125  14.5588131500
B   -0.0000000000  3.3157246250  0.0000000000
B   0.0000000000  0.0000000000  0.0000000000
B   7.6220291990  4.9735869375  14.5588131500
B   8.0815149010  1.6578623125  14.5588131500
8
scale = 2.20000
Li  4.6398816200  5.0892517500  0.0000000000
Li  11.4288611800  1.6964172500  0.0000000000
Li  12.5582367020  5.0892517500  14.8973902000
Li  3.5105060980  1.6964172500  14.8973902000
B   -0.0000000000  3.3928345000  0.0000000000
B   0.0000000000  0.0000000000  0.0000000000
B   7.7992856920  5.0892517500  14.8973902000
B   8.2694571080  1.6964172500  14.8973902000
8
scale = 2.25000
Li  4.7453334750  5.2049165625  0.0000000000
Li  11.6886080250  1.7349721875  0.0000000000
Li  12.8436511725  5.2049165625  15.2359672500
Li  3.5902903275  1.7349721875  15.2359672500
B   -0.0000000000  3.4699443750  0.0000000000
B   0.0000000000  0.0000000000  0.0000000000
B   7.9765421850  5.2049165625  15.2359672500
B   8.4573993150  1.7349721875  15.2359672500
8
scale = 2.30000
Li  4.8507853300  5.3205813750  0.0000000000
Li  11.9483548700  1.7735271250  0.0000000000
Li  13.1290656430  5.3205813750  15.5745443000
Li  3.6700745570  1.7735271250  15.5745443000
B   -0.0000000000  3.5470542500  0.0000000000
B   0.0000000000  0.0000000000  0.0000000000
B   8.1537986780  5.3205813750  15.5745443000
B   8.6453415220  1.7735271250  15.5745443000
8
scale = 2.35000
Li  4.9562371850  5.4362461875  0.0000000000
Li  12.2081017150  1.8120820625  0.0000000000
Li  13.4144801135  5.4362461875  15.9131213500
Li  3.7498587865  1.8120820625  15.9131213500
B   -0.0000000000  3.6241641250  0.0000000000
B   0.0000000000  0.0000000000  0.0000000000
B   8.3310551710  5.4362461875  15.9131213500
B   8.8332837290  1.8120820625  15.9131213500
8
scale = 2.40000
Li  5.0616890400  5.5519110000  0.0000000000
Li  12.4678485600  1.8506370000  0.0000000000
Li  13.6998945840  5.5519110000  16.2516984000
Li  3.8296430160  1.8506370000  16.2516984000
B   -0.0000000000  3.7012740000  0.0000000000
B   0.0000000000  0.0000000000  0.0000000000
B   8.5083116640  5.5519110000  16.2516984000
B   9.0212259360  1.8506370000  16.2516984000
8
scale = 2.45000
Li  5.1671408950  5.6675758125  0.0000000000
Li  12.7275954050  1.8891919375  0.0000000000
Li  13.9853090545  5.6675758125  16.5902754500
Li  3.9094272455  1.8891919375  16.5902754500
B   -0.0000000000  3.7783838750  0.0000000000
B   0.0000000000  0.0000000000  0.0000000000
B   8.6855681570  5.6675758125  16.5902754500
B   9.2091681430  1.8891919375  16.5902754500
