4
scale = 0.75000
Li  2.0321848050  0.9478030650  1.0027278975
Li  0.6773949300  0.6807530250  3.9291697575
Be  2.0321848050  0.2935414350  2.6200947975
Be  0.6773949300  1.3350146550  2.3118028575
4
scale = 0.80000
Li  2.1676637920  1.0109899360  1.0695764240
Li  0.7225545920  0.7261365600  4.1911144080
Be  2.1676637920  0.3131108640  2.7947677840
Be  0.7225545920  1.4240156320  2.4659230480
4
scale = 0.85000
Li  2.3031427790  1.0741768070  1.1364249505
Li  0.7677142540  0.7715200950  4.4530590585
Be  2.3031427790  0.3326802930  2.9694407705
Be  0.7677142540  1.5130166090  2.6200432385
4
scale = 0.90000
Li  2.4386217660  1.1373636780  1.2032734770
Li  0.8128739160  0.8169036300  4.7150037090
Be  2.4386217660  0.3522497220  3.1441137570
Be  0.8128739160  1.6020175860  2.7741634290
4
scale = 0.95000
Li  2.5741007530  1.2005505490  1.2701220035
Li  0.8580335780  0.8622871650  4.9769483595
Be  2.5741007530  0.3718191510  3.3187867435
Be  0.8580335780  1.6910185630  2.9282836195
4
scale = 1.00000
Li  2.7095797400  1.2637374200  1.3369705300
Li  0.9031932400  0.9076707000  5.2388930100
Be  2.7095797400  0.3913885800  3.4934597300
Be  0.9031932400  1.7800195400  3.0824038100
4
scale = 1.05000
Li  2.8450587270  1.3269242910  1.4038190565
Li  0.9483529020  0.9530542350  5.5008376605
Be  2.8450587270  0.4109580090  3.6681327165
Be  0.9483529020  1.8690205170  3.2365240005
4
scale = 1.10000
Li  2.9805377140  1.3901111620  1.4706675830
Li  0.9935125640  0.9984377700  5.7627823110
Be  2.9805377140  0.4305274380  3.8428057030
Be  0.9935125640  1.9580214940  3.3906441910
4
scale = 1.15000
Li  3.1160167010  1.4532980330  1.5375161095
Li  1.0386722260  1.0438213050  6.0247269615
Be  3.1160167010  0.4500968670  4.0174786895
Be  1.0386722260  2.0470224710  3.5447643815
4
scale = 1.20000
Li  3.2514956880  1.5164849040  1.6043646360
Li  1.0838318880  1.0892048400  6.2866716120
Be  3.2514956880  0.4696662960  4.1921516760
Be  1.0838318880  2.1360234480  3.6988845720
4
scale = 1.25000
Li  3.3869746750  1.5796717750  1.6712131625
Li  1.1289915500  1.1345883750  6.5486162625
Be  3.3869746750  0.4892357250  4.3668246625
Be  1.1289915500  2.2250244250  3.8530047625
4
scale = 1.30000
Li  3.5224536620  1.6428586460  1.7380616890
Li  1.1741512120  1.1799719100  6.8105609130
Be  3.5224536620  0.5088051540  4.5414976490
Be  1.1741512120  2.3140254020  4.0071249530
4
scale = 1.35000
Li  3.6579326490  1.7060455170  1.8049102155
Li  1.2193108740  1.2253554450  7.0725055635
Be  3.6579326490  0.5283745830  4.7161706355
Be  1.2193108740  2.4030263790  4.1612451435
4
scale = 1.40000
Li  3.7934116360  1.7692323880  1.8717587420
Li  1.2644705360  1.2707389800  7.3344502140
Be  3.7934116360  0.5479440120  4.8908436220
Be  1.2644705360  2.4920273560  4.3153653340
4
scale = 1.45000
Li  3.9288906230  1.8324192590  1.9386072685
Li  1.3096301980  1.3161225150  7.5963948645
Be  3.9288906230  0.5675134410  5.0655166085
Be  1.3096301980  2.5810283330  4.4694855245
4
scale = 1.50000
Li  4.0643696100  1.8956061300  2.0054557950
Li  1.3547898600  1.3615060500  7.8583395150
Be  4.0643696100  0.5870828700  5.2401895950
Be  1.3547898600  2.6700293100  4.6236057150
4
scale = 1.55000
Li  4.1998485970  1.9587930010  2.0723043215
Li  1.3999495220  1.4068895850  8.1202841655
Be  4.1998485970  0.6066522990  5.4148625815
Be  1.3999495220  2.7590302870  4.7777259055
4
scale = 1.60000
Li  4.3353275840  2.0219798720  2.1391528480
Li  1.4451091840  1.4522731200  8.3822288160
Be  4.3353275840  0.6262217280  5.5895355680
Be  1.4451091840  2.8480312640  4.9318460960
4
scale = 1.65000
Li  4.4708065710  2.0851667430  2.2060013745
Li  1.4902688460  1.4976566550  8.6441734665
Be  4.4708065710  0.6457911570  5.7642085545
Be  1.4902688460  2.9370322410  5.0859662865
4
scale = 1.70000
Li  4.6062855580  2.1483536140  2.2728499010
Li  1.5354285080  1.5430401900  8.9061181170
Be  4.6062855580  0.6653605860  5.9388815410
Be  1.5354285080  3.0260332180  5.2400864770
4
scale = 1.75000
Li  4.7417645450  2.2115404850  2.3396984275
Li  1.5805881700  1.5884237250  9.1680627675
Be  4.7417645450  0.6849300150  6.1135545275
Be  1.5805881700  3.1150341950  5.3942066675
4
scale = 1.80000
Li  4.8772435320  2.2747273560  2.4065469540
Li  1.6257478320  1.6338072600  9.4300074180
Be  4.8772435320  0.7044994440  6.2882275140
Be  1.6257478320  3.2040351720  5.5483268580
4
scale = 1.85000
Li  5.0127225190  2.3379142270  2.4733954805
Li  1.6709074940  1.6791907950  9.6919520685
Be  5.0127225190  0.7240688730  6.4629005005
Be  1.6709074940  3.2930361490  5.7024470485
4
scale = 1.90000
Li  5.1482015060  2.4011010980  2.5402440070
Li  1.7160671560  1.7245743300  9.9538967190
Be  5.1482015060  0.7436383020  6.6375734870
Be  1.7160671560  3.3820371260  5.8565672390
4
scale = 1.95000
Li  5.2836804930  2.4642879690  2.6070925335
Li  1.7612268180  1.7699578650  10.2158413695
Be  5.2836804930  0.7632077310  6.8122464735
Be  1.7612268180  3.4710381030  6.0106874295
4
scale = 2.00000
Li  5.4191594800  2.5274748400  2.6739410600
Li  1.8063864800  1.8153414000  10.4777860200
Be  5.4191594800  0.7827771600  6.9869194600
Be  1.8063864800  3.5600390800  6.1648076200
4
scale = 2.05000
Li  5.5546384670  2.5906617110  2.7407895865
Li  1.8515461420  1.8607249350  10.7397306705
Be  5.5546384670  0.8023465890  7.1615924465
Be  1.8515461420  3.6490400570  6.3189278105
4
scale = 2.10000
Li  5.6901174540  2.6538485820  2.8076381130
Li  1.8967058040  1.9061084700  11.0016753210
Be  5.6901174540  0.8219160180  7.3362654330
Be  1.8967058040  3.7380410340  6.4730480010
4
scale = 2.15000
Li  5.8255964410  2.7170354530  2.8744866395
Li  1.9418654660  1.9514920050  11.2636199715
Be  5.8255964410  0.8414854470  7.5109384195
Be  1.9418654660  3.8270420110  6.6271681915
4
scale = 2.20000
Li  5.9610754280  2.7802223240  2.9413351660
Li  1.9870251280  1.9968755400  11.5255646220
Be  5.9610754280  0.8610548760  7.6856114060
Be  1.9870251280  3.9160429880  6.7812883820
4
scale = 2.25000
Li  6.0965544150  2.8434091950  3.0081836925
Li  2.0321847900  2.0422590750  11.7875092725
Be  6.0965544150  0.8806243050  7.8602843925
Be  2.0321847900  4.0050439650  6.9354085725
4
scale = 2.30000
Li  6.2320334020  2.9065960660  3.0750322190
Li  2.0773444520  2.0876426100  12.0494539230
Be  6.2320334020  0.9001937340  8.0349573790
Be  2.0773444520  4.0940449420  7.0895287630
4
scale = 2.35000
Li  6.3675123890  2.9697829370  3.1418807455
Li  2.1225041140  2.1330261450  12.3113985735
Be  6.3675123890  0.9197631630  8.2096303655
Be  2.1225041140  4.1830459190  7.2436489535
4
scale = 2.40000
Li  6.5029913760  3.0329698080  3.2087292720
Li  2.1676637760  2.1784096800  12.5733432240
Be  6.5029913760  0.9393325920  8.3843033520
Be  2.1676637760  4.2720468960  7.3977691440
4
scale = 2.45000
Li  6.6384703630  3.0961566790  3.2755777985
Li  2.2128234380  2.2237932150  12.8352878745
Be  6.6384703630  0.9589020210  8.5589763385
Be  2.2128234380  4.3610478730  7.5518893345
