2
scale = 0.75000
Li  1.2452212575  1.2452212575  1.6199205600
Bi  0.0000000000  0.0000000000  0.0000000000
2
scale = 0.80000
Li  1.3282360080  1.3282360080  1.7279152640
Bi  0.0000000000  0.0000000000  0.0000000000
2
scale = 0.85000
Li  1.4112507585  1.4112507585  1.8359099680
Bi  0.0000000000  0.0000000000  0.0000000000
2
scale = 0.90000
Li  1.4942655090  1.4942655090  1.9439046720
Bi  0.0000000000  0.0000000000  0.0000000000
2
scale = 0.95000
Li  1.5772802595  1.5772802595  2.0518993760
Bi  0.0000000000  0.0000000000  0.0000000000
2
scale = 1.00000
Li  1.6602950100  1.6602950100  2.1598940800
Bi  0.0000000000  0.0000000000  0.0000000000
2
scale = 1.05000
Li  1.7433097605  1.7433097605  2.2678887840
Bi  0.0000000000  0.0000000000  0.0000000000
2
scale = 1.10000
Li  1.8263245110  1.8263245110  2.3758834880
Bi  0.0000000000  0.0000000000  0.0000000000
2
scale = 1.15000
Li  1.9093392615  1.9093392615  2.4838781920
Bi  0.0000000000  0.0000000000  0.0000000000
2
scale = 1.20000
Li  1.9923540120  1.9923540120  2.5918728960
Bi  0.0000000000  0.0000000000  0.0000000000
2
scale = 1.25000
Li  2.0753687625  2.0753687625  2.6998676000
Bi  0.0000000000  0.0000000000  0.0000000000
2
scale = 1.30000
Li  2.1583835130  2.1583835130  2.8078623040
Bi  0.0000000000  0.0000000000  0.0000000000
2
scale = 1.35000
Li  2.2413982635  2.2413982635  2.9158570080
Bi  0.0000000000  0.0000000000  0.0000000000
2
scale = 1.40000
Li  2.3244130140  2.3244130140  3.0238517120
Bi  0.0000000000  0.0000000000  0.0000000000
2
scale = 1.45000
Li  2.4074277645  2.4074277645  3.1318464160
Bi  0.0000000000  0.0000000000  0.0000000000
2
scale = 1.50000
Li  2.4904425150  2.4904425150  3.2398411200
Bi  0.0000000000  0.0000000000  0.0000000000
2
scale = 1.55000
Li  2.5734572655  2.5734572655  3.3478358240
Bi  0.0000000000  0.0000000000  0.0000000000
2
scale = 1.60000
Li  2.6564720160  2.6564720160  3.4558305280
Bi  0.0000000000  0.0000000000  0.0000000000
2
scale = 1.65000
Li  2.7394867665  2.7394867665  3.5638252320
Bi  0.0000000000  0.0000000000  0.0000000000
2
scale = 1.70000
Li  2.8225015170  2.8225015170  3.6718199360
Bi  0.0000000000  0.0000000000  0.0000000000
2
scale = 1.75000
Li  2.9055162675  2.9055162675  3.7798146400
Bi  0.0000000000  0.0000000000  0.0000000000
2
scale = 1.80000
Li  2.9885310180  2.9885310180  3.8878093440
Bi  0.0000000000  0.0000000000  0.0000000000
2
scale = 1.85000
Li  3.0715457685  3.0715457685  3.9958040480
Bi  0.0000000000  0.0000000000  0.0000000000
2
scale = 1.90000
Li  3.1545605190  3.1545605190  4.1037987520
Bi  0.0000000000  0.0000000000  0.0000000000
2
scale = 1.95000
Li  3.2375752695  3.2375752695  4.2117934560
Bi  0.0000000000  0.0000000000  0.0000000000
2
scale = 2.00000
Li  3.3205900200  3.3205900200  4.3197881600
Bi  0.0000000000  0.0000000000  0.0000000000
2
scale = 2.05000
Li  3.4036047705  3.4036047705  4.4277828640
Bi  0.0000000000  0.0000000000  0.0000000000
2
scale = 2.10000
Li  3.4866195210  3.4866195210  4.5357775680
Bi  0.0000000000  0.0000000000  0.0000000000
2
scale = 2.15000
Li  3.5696342715  3.5696342715  4.6437722720
Bi  0.0000000000  0.0000000000  0.0000000000
2
scale = 2.20000
Li  3.6526490220  3.6526490220  4.7517669760
Bi  0.0000000000  0.0000000000  0.0000000000
2
scale = 2.25000
Li  3.7356637725  3.7356637725  4.8597616800
Bi  0.0000000000  0.0000000000  0.0000000000
2
scale = 2.30000
Li  3.8186785230  3.8186785230  4.9677563840
Bi  0.0000000000  0.0000000000  0.0000000000
2
scale = 2.35000
Li  3.9016932735  3.9016932735  5.0757510880
Bi  0.0000000000  0.0000000000  0.0000000000
2
scale = 2.40000
Li  3.9847080240  3.9847080240  5.1837457920
Bi  0.0000000000  0.0000000000  0.0000000000
2
scale = 2.45000
Li  4.0677227745  4.0677227745  5.2917404960
Bi  0.0000000000  0.0000000000  0.0000000000
