4
scale = 0.75000
Li  0.0000000000  0.0000000000  1.8919018800
Li  0.0000020625  1.7926170150  4.4018861850
Br  0.0000000000  0.0000000000  5.0105449350
Br  0.0000020625  1.7926170150  2.5005606225
4
scale = 0.80000
Li  0.0000000000  0.0000000000  2.0180286720
Li  0.0000022000  1.9121248160  4.6953452640
Br  0.0000000000  0.0000000000  5.3445812640
Br  0.0000022000  1.9121248160  2.6672646640
4
scale = 0.85000
Li  0.0000000000  0.0000000000  2.1441554640
Li  0.0000023375  2.0316326170  4.9888043430
Br  0.0000000000  0.0000000000  5.6786175930
Br  0.0000023375  2.0316326170  2.8339687055
4
scale = 0.90000
Li  0.0000000000  0.0000000000  2.2702822560
Li  0.0000024750  2.1511404180  5.2822634220
Br  0.0000000000  0.0000000000  6.0126539220
Br  0.0000024750  2.1511404180  3.0006727470
4
scale = 0.95000
Li  0.0000000000  0.0000000000  2.3964090480
Li  0.0000026125  2.2706482190  5.5757225010
Br  0.0000000000  0.0000000000  6.3466902510
Br  0.0000026125  2.2706482190  3.1673767885
4
scale = 1.00000
Li  0.0000000000  0.0000000000  2.5225358400
Li  0.0000027500  2.3901560200  5.8691815800
Br  0.0000000000  0.0000000000  6.6807265800
Br  0.0000027500  2.3901560200  3.3340808300
4
scale = 1.05000
Li  0.0000000000  0.0000000000  2.6486626320
Li  0.0000028875  2.5096638210  6.1626406590
Br  0.0000000000  0.0000000000  7.0147629090
Br  0.0000028875  2.5096638210  3.5007848715
4
scale = 1.10000
Li  0.0000000000  0.0000000000  2.7747894240
Li  0.0000030250  2.6291716220  6.4560997380
Br  0.0000000000  0.0000000000  7.3487992380
Br  0.0000030250  2.6291716220  3.6674889130
4
scale = 1.15000
Li  0.0000000000  0.0000000000  2.9009162160
Li  0.0000031625  2.7486794230  6.7495588170
Br  0.0000000000  0.0000000000  7.6828355670
Br  0.0000031625  2.7486794230  3.8341929545
4
scale = 1.20000
Li  0.0000000000  0.0000000000  3.0270430080
Li  0.0000033000  2.8681872240  7.0430178960
Br  0.0000000000  0.0000000000  8.0168718960
Br  0.0000033000  2.8681872240  4.0008969960
4
scale = 1.25000
Li  0.0000000000  0.0000000000  3.1531698000
Li  0.0000034375  2.9876950250  7.3364769750
Br  0.0000000000  0.0000000000  8.3509082250
Br  0.0000034375  2.9876950250  4.1676010375
4
scale = 1.30000
Li  0.0000000000  0.0000000000  3.2792965920
Li  0.0000035750  3.1072028260  7.6299360540
Br  0.0000000000  0.0000000000  8.6849445540
Br  0.0000035750  3.1072028260  4.3343050790
4
scale = 1.35000
Li  0.0000000000  0.0000000000  3.4054233840
Li  0.0000037125  3.2267106270  7.9233951330
Br  0.0000000000  0.0000000000  9.0189808830
Br  0.0000037125  3.2267106270  4.5010091205
4
scale = 1.40000
Li  0.0000000000  0.0000000000  3.5315501760
Li  0.0000038500  3.3462184280  8.2168542120
Br  0.0000000000  0.0000000000  9.3530172120
Br  0.0000038500  3.3462184280  4.6677131620
4
scale = 1.45000
Li  0.0000000000  0.0000000000  3.6576769680
Li  0.0000039875  3.4657262290  8.5103132910
Br  0.0000000000  0.0000000000  9.6870535410
Br  0.0000039875  3.4657262290  4.8344172035
4
scale = 1.50000
Li  0.0000000000  0.0000000000  3.7838037600
Li  0.0000041250  3.5852340300  8.8037723700
Br  0.0000000000  0.0000000000  10.0210898700
Br  0.0000041250  3.5852340300  5.0011212450
4
scale = 1.55000
Li  0.0000000000  0.0000000000  3.9099305520
Li  0.0000042625  3.7047418310  9.0972314490
Br  0.0000000000  0.0000000000  10.3551261990
Br  0.0000042625  3.7047418310  5.1678252865
4
scale = 1.60000
Li  0.0000000000  0.0000000000  4.0360573440
Li  0.0000044000  3.8242496320  9.3906905280
Br  0.0000000000  0.0000000000  10.6891625280
Br  0.0000044000  3.8242496320  5.3345293280
4
scale = 1.65000
Li  0.0000000000  0.0000000000  4.1621841360
Li  0.0000045375  3.9437574330  9.6841496070
Br  0.0000000000  0.0000000000  11.0231988570
Br  0.0000045375  3.9437574330  5.5012333695
4
scale = 1.70000
Li  0.0000000000  0.0000000000  4.2883109280
Li  0.0000046750  4.0632652340  9.9776086860
Br  0.0000000000  0.0000000000  11.3572351860
Br  0.0000046750  4.0632652340  5.6679374110
4
scale = 1.75000
Li  0.0000000000  0.0000000000  4.4144377200
Li  0.0000048125  4.1827730350  10.2710677650
Br  0.0000000000  0.0000000000  11.6912715150
Br  0.0000048125  4.1827730350  5.8346414525
4
scale = 1.80000
Li  0.0000000000  0.0000000000  4.5405645120
Li  0.0000049500  4.3022808360  10.5645268440
Br  0.0000000000  0.0000000000  12.0253078440
Br  0.0000049500  4.3022808360  6.0013454940
4
scale = 1.85000
Li  0.0000000000  0.0000000000  4.6666913040
Li  0.0000050875  4.4217886370  10.8579859230
Br  0.0000000000  0.0000000000  12.3593441730
Br  0.0000050875  4.4217886370  6.1680495355
4
scale = 1.90000
Li  0.0000000000  0.0000000000  4.7928180960
Li  0.0000052250  4.5412964380  11.1514450020
Br  0.0000000000  0.0000000000  12.6933805020
Br  0.0000052250  4.5412964380  6.3347535770
4
scale = 1.95000
Li  0.0000000000  0.0000000000  4.9189448880
Li  0.0000053625  4.6608042390  11.4449040810
Br  0.0000000000  0.0000000000  13.0274168310
Br  0.0000053625  4.6608042390  6.5014576185
4
scale = 2.00000
Li  0.0000000000  0.0000000000  5.0450716800
Li  0.0000055000  4.7803120400  11.7383631600
Br  0.0000000000  0.0000000000  13.3614531600
Br  0.0000055000  4.7803120400  6.6681616600
4
scale = 2.05000
Li  0.0000000000  0.0000000000  5.1711984720
Li  0.0000056375  4.8998198410  12.0318222390
Br  0.0000000000  0.0000000000  13.6954894890
Br  0.0000056375  4.8998198410  6.8348657015
4
scale = 2.10000
Li  0.0000000000  0.0000000000  5.2973252640
Li  0.0000057750  5.0193276420  12.3252813180
Br  0.0000000000  0.0000000000  14.0295258180
Br  0.0000057750  5.0193276420  7.0015697430
4
scale = 2.15000
Li  0.0000000000  0.0000000000  5.4234520560
Li  0.0000059125  5.1388354430  12.6187403970
Br  0.0000000000  0.0000000000  14.3635621470
Br  0.0000059125  5.1388354430  7.1682737845
4
scale = 2.20000
Li  0.0000000000  0.0000000000  5.5495788480
Li  0.0000060500  5.2583432440  12.9121994760
Br  0.0000000000  0.0000000000  14.6975984760
Br  0.0000060500  5.2583432440  7.3349778260
4
scale = 2.25000
Li  0.0000000000  0.0000000000  5.6757056400
Li  0.0000061875  5.3778510450  13.2056585550
Br  0.0000000000  0.0000000000  15.0316348050
Br  0.0000061875  5.3778510450  7.5016818675
4
scale = 2.30000
Li  0.0000000000  0.0000000000  5.8018324320
Li  0.0000063250  5.4973588460  13.4991176340
Br  0.0000000000  0.0000000000  15.3656711340
Br  0.0000063250  5.4973588460  7.6683859090
4
scale = 2.35000
Li  0.0000000000  0.0000000000  5.9279592240
Li  0.0000064625  5.6168666470  13.7925767130
Br  0.0000000000  0.0000000000  15.6997074630
Br  0.0000064625  5.6168666470  7.8350899505
4
scale = 2.40000
Li  0.0000000000  0.0000000000  6.0540860160
Li  0.0000066000  5.7363744480  14.0860357920
Br  0.0000000000  0.0000000000  16.0337437920
Br  0.0000066000  5.7363744480  8.0017939920
4
scale = 2.45000
Li  0.0000000000  0.0000000000  6.1802128080
Li  0.0000067375  5.8558822490  14.3794948710
Br  0.0000000000  0.0000000000  16.3677801210
Br  0.0000067375  5.8558822490  8.1684980335
