8
scale = 0.75000
Li  -0.0000003525  3.2843757825  3.4947308025
Li  2.8443511500  1.6421878875  1.1649102675
Ca  0.0000026700  1.6658666625  1.1649102675
Ca  1.4016702375  4.0936278750  1.1649102675
Ca  -1.4016654225  4.0936278750  1.1649102675
Ca  2.8443481275  3.2606970075  3.4947308025
Ca  1.4426805600  0.8329357950  3.4947308025
Ca  4.2460162200  0.8329357950  3.4947308025
8
scale = 0.80000
Li  -0.0000003760  3.5033341680  3.7277128560
Li  3.0339745600  1.7516670800  1.2425709520
Ca  0.0000028480  1.7769244400  1.2425709520
Ca  1.4951149200  4.3665364000  1.2425709520
Ca  -1.4951097840  4.3665364000  1.2425709520
Ca  3.0339713360  3.4780768080  3.7277128560
Ca  1.5388592640  0.8884648480  3.7277128560
Ca  4.5290839680  0.8884648480  3.7277128560
8
scale = 0.85000
Li  -0.0000003995  3.7222925535  3.9606949095
Li  3.2235979700  1.8611462725  1.3202316365
Ca  0.0000030260  1.8879822175  1.3202316365
Ca  1.5885596025  4.6394449250  1.3202316365
Ca  -1.5885541455  4.6394449250  1.3202316365
Ca  3.2235945445  3.6954566085  3.9606949095
Ca  1.6350379680  0.9439939010  3.9606949095
Ca  4.8121517160  0.9439939010  3.9606949095
8
scale = 0.90000
Li  -0.0000004230  3.9412509390  4.1936769630
Li  3.4132213800  1.9706254650  1.3978923210
Ca  0.0000032040  1.9990399950  1.3978923210
Ca  1.6820042850  4.9123534500  1.3978923210
Ca  -1.6819985070  4.9123534500  1.3978923210
Ca  3.4132177530  3.9128364090  4.1936769630
Ca  1.7312166720  0.9995229540  4.1936769630
Ca  5.0952194640  0.9995229540  4.1936769630
8
scale = 0.95000
Li  -0.0000004465  4.1602093245  4.4266590165
Li  3.6028447900  2.0801046575  1.4755530055
Ca  0.0000033820  2.1100977725  1.4755530055
Ca  1.7754489675  5.1852619750  1.4755530055
Ca  -1.7754428685  5.1852619750  1.4755530055
Ca  3.6028409615  4.1302162095  4.4266590165
Ca  1.8273953760  1.0550520070  4.4266590165
Ca  5.3782872120  1.0550520070  4.4266590165
8
scale = 1.00000
Li  -0.0000004700  4.3791677100  4.6596410700
Li  3.7924682000  2.1895838500  1.5532136900
Ca  0.0000035600  2.2211555500  1.5532136900
Ca  1.8688936500  5.4581705000  1.5532136900
Ca  -1.8688872300  5.4581705000  1.5532136900
Ca  3.7924641700  4.3475960100  4.6596410700
Ca  1.9235740800  1.1105810600  4.6596410700
Ca  5.6613549600  1.1105810600  4.6596410700
8
scale = 1.05000
Li  -0.0000004935  4.5981260955  4.8926231235
Li  3.9820916100  2.2990630425  1.6308743745
Ca  0.0000037380  2.3322133275  1.6308743745
Ca  1.9623383325  5.7310790250  1.6308743745
Ca  -1.9623315915  5.7310790250  1.6308743745
Ca  3.9820873785  4.5649758105  4.8926231235
Ca  2.0197527840  1.1661101130  4.8926231235
Ca  5.9444227080  1.1661101130  4.8926231235
8
scale = 1.10000
Li  -0.0000005170  4.8170844810  5.1256051770
Li  4.1717150200  2.4085422350  1.7085350590
Ca  0.0000039160  2.4432711050  1.7085350590
Ca  2.0557830150  6.0039875500  1.7085350590
Ca  -2.0557759530  6.0039875500  1.7085350590
Ca  4.1717105870  4.7823556110  5.1256051770
Ca  2.1159314880  1.2216391660  5.1256051770
Ca  6.2274904560  1.2216391660  5.1256051770
8
scale = 1.15000
Li  -0.0000005405  5.0360428665  5.3585872305
Li  4.3613384300  2.5180214275  1.7861957435
Ca  0.0000040940  2.5543288825  1.7861957435
Ca  2.1492276975  6.2768960750  1.7861957435
Ca  -2.1492203145  6.2768960750  1.7861957435
Ca  4.3613337955  4.9997354115  5.3585872305
Ca  2.2121101920  1.2771682190  5.3585872305
Ca  6.5105582040  1.2771682190  5.3585872305
8
scale = 1.20000
Li  -0.0000005640  5.2550012520  5.5915692840
Li  4.5509618400  2.6275006200  1.8638564280
Ca  0.0000042720  2.6653866600  1.8638564280
Ca  2.2426723800  6.5498046000  1.8638564280
Ca  -2.2426646760  6.5498046000  1.8638564280
Ca  4.5509570040  5.2171152120  5.5915692840
Ca  2.3082888960  1.3326972720  5.5915692840
Ca  6.7936259520  1.3326972720  5.5915692840
8
scale = 1.25000
Li  -0.0000005875  5.4739596375  5.8245513375
Li  4.7405852500  2.7369798125  1.9415171125
Ca  0.0000044500  2.7764444375  1.9415171125
Ca  2.3361170625  6.8227131250  1.9415171125
Ca  -2.3361090375  6.8227131250  1.9415171125
Ca  4.7405802125  5.4344950125  5.8245513375
Ca  2.4044676000  1.3882263250  5.8245513375
Ca  7.0766937000  1.3882263250  5.8245513375
8
scale = 1.30000
Li  -0.0000006110  5.6929180230  6.0575333910
Li  4.9302086600  2.8464590050  2.0191777970
Ca  0.0000046280  2.8875022150  2.0191777970
Ca  2.4295617450  7.0956216500  2.0191777970
Ca  -2.4295533990  7.0956216500  2.0191777970
Ca  4.9302034210  5.6518748130  6.0575333910
Ca  2.5006463040  1.4437553780  6.0575333910
Ca  7.3597614480  1.4437553780  6.0575333910
8
scale = 1.35000
Li  -0.0000006345  5.9118764085  6.2905154445
Li  5.1198320700  2.9559381975  2.0968384815
Ca  0.0000048060  2.9985599925  2.0968384815
Ca  2.5230064275  7.3685301750  2.0968384815
Ca  -2.5229977605  7.3685301750  2.0968384815
Ca  5.1198266295  5.8692546135  6.2905154445
Ca  2.5968250080  1.4992844310  6.2905154445
Ca  7.6428291960  1.4992844310  6.2905154445
8
scale = 1.40000
Li  -0.0000006580  6.1308347940  6.5234974980
Li  5.3094554800  3.0654173900  2.1744991660
Ca  0.0000049840  3.1096177700  2.1744991660
Ca  2.6164511100  7.6414387000  2.1744991660
Ca  -2.6164421220  7.6414387000  2.1744991660
Ca  5.3094498380  6.0866344140  6.5234974980
Ca  2.6930037120  1.5548134840  6.5234974980
Ca  7.9258969440  1.5548134840  6.5234974980
8
scale = 1.45000
Li  -0.0000006815  6.3497931795  6.7564795515
Li  5.4990788900  3.1748965825  2.2521598505
Ca  0.0000051620  3.2206755475  2.2521598505
Ca  2.7098957925  7.9143472250  2.2521598505
Ca  -2.7098864835  7.9143472250  2.2521598505
Ca  5.4990730465  6.3040142145  6.7564795515
Ca  2.7891824160  1.6103425370  6.7564795515
Ca  8.2089646920  1.6103425370  6.7564795515
8
scale = 1.50000
Li  -0.0000007050  6.5687515650  6.9894616050
Li  5.6887023000  3.2843757750  2.3298205350
Ca  0.0000053400  3.3317333250  2.3298205350
Ca  2.8033404750  8.1872557500  2.3298205350
Ca  -2.8033308450  8.1872557500  2.3298205350
Ca  5.6886962550  6.5213940150  6.9894616050
Ca  2.8853611200  1.6658715900  6.9894616050
Ca  8.4920324400  1.6658715900  6.9894616050
8
scale = 1.55000
Li  -0.0000007285  6.7877099505  7.2224436585
Li  5.8783257100  3.3938549675  2.4074812195
Ca  0.0000055180  3.4427911025  2.4074812195
Ca  2.8967851575  8.4601642750  2.4074812195
Ca  -2.8967752065  8.4601642750  2.4074812195
Ca  5.8783194635  6.7387738155  7.2224436585
Ca  2.9815398240  1.7214006430  7.2224436585
Ca  8.7751001880  1.7214006430  7.2224436585
8
scale = 1.60000
Li  -0.0000007520  7.0066683360  7.4554257120
Li  6.0679491200  3.5033341600  2.4851419040
Ca  0.0000056960  3.5538488800  2.4851419040
Ca  2.9902298400  8.7330728000  2.4851419040
Ca  -2.9902195680  8.7330728000  2.4851419040
Ca  6.0679426720  6.9561536160  7.4554257120
Ca  3.0777185280  1.7769296960  7.4554257120
Ca  9.0581679360  1.7769296960  7.4554257120
8
scale = 1.65000
Li  -0.0000007755  7.2256267215  7.6884077655
Li  6.2575725300  3.6128133525  2.5628025885
Ca  0.0000058740  3.6649066575  2.5628025885
Ca  3.0836745225  9.0059813250  2.5628025885
Ca  -3.0836639295  9.0059813250  2.5628025885
Ca  6.2575658805  7.1735334165  7.6884077655
Ca  3.1738972320  1.8324587490  7.6884077655
Ca  9.3412356840  1.8324587490  7.6884077655
8
scale = 1.70000
Li  -0.0000007990  7.4445851070  7.9213898190
Li  6.4471959400  3.7222925450  2.6404632730
Ca  0.0000060520  3.7759644350  2.6404632730
Ca  3.1771192050  9.2788898500  2.6404632730
Ca  -3.1771082910  9.2788898500  2.6404632730
Ca  6.4471890890  7.3909132170  7.9213898190
Ca  3.2700759360  1.8879878020  7.9213898190
Ca  9.6243034320  1.8879878020  7.9213898190
8
scale = 1.75000
Li  -0.0000008225  7.6635434925  8.1543718725
Li  6.6368193500  3.8317717375  2.7181239575
Ca  0.0000062300  3.8870222125  2.7181239575
Ca  3.2705638875  9.5517983750  2.7181239575
Ca  -3.2705526525  9.5517983750  2.7181239575
Ca  6.6368122975  7.6082930175  8.1543718725
Ca  3.3662546400  1.9435168550  8.1543718725
Ca  9.9073711800  1.9435168550  8.1543718725
8
scale = 1.80000
Li  -0.0000008460  7.8825018780  8.3873539260
Li  6.8264427600  3.9412509300  2.7957846420
Ca  0.0000064080  3.9980799900  2.7957846420
Ca  3.3640085700  9.8247069000  2.7957846420
Ca  -3.3639970140  9.8247069000  2.7957846420
Ca  6.8264355060  7.8256728180  8.3873539260
Ca  3.4624333440  1.9990459080  8.3873539260
Ca  10.1904389280  1.9990459080  8.3873539260
8
scale = 1.85000
Li  -0.0000008695  8.1014602635  8.6203359795
Li  7.0160661700  4.0507301225  2.8734453265
Ca  0.0000065860  4.1091377675  2.8734453265
Ca  3.4574532525  10.0976154250  2.8734453265
Ca  -3.4574413755  10.0976154250  2.8734453265
Ca  7.0160587145  8.0430526185  8.6203359795
Ca  3.5586120480  2.0545749610  8.6203359795
Ca  10.4735066760  2.0545749610  8.6203359795
8
scale = 1.90000
Li  -0.0000008930  8.3204186490  8.8533180330
Li  7.2056895800  4.1602093150  2.9511060110
Ca  0.0000067640  4.2201955450  2.9511060110
Ca  3.5508979350  10.3705239500  2.9511060110
Ca  -3.5508857370  10.3705239500  2.9511060110
Ca  7.2056819230  8.2604324190  8.8533180330
Ca  3.6547907520  2.1101040140  8.8533180330
Ca  10.7565744240  2.1101040140  8.8533180330
8
scale = 1.95000
Li  -0.0000009165  8.5393770345  9.0863000865
Li  7.3953129900  4.2696885075  3.0287666955
Ca  0.0000069420  4.3312533225  3.0287666955
Ca  3.6443426175  10.6434324750  3.0287666955
Ca  -3.6443300985  10.6434324750  3.0287666955
Ca  7.3953051315  8.4778122195  9.0863000865
Ca  3.7509694560  2.1656330670  9.0863000865
Ca  11.0396421720  2.1656330670  9.0863000865
8
scale = 2.00000
Li  -0.0000009400  8.7583354200  9.3192821400
Li  7.5849364000  4.3791677000  3.1064273800
Ca  0.0000071200  4.4423111000  3.1064273800
Ca  3.7377873000  10.9163410000  3.1064273800
Ca  -3.7377744600  10.9163410000  3.1064273800
Ca  7.5849283400  8.6951920200  9.3192821400
Ca  3.8471481600  2.2211621200  9.3192821400
Ca  11.3227099200  2.2211621200  9.3192821400
8
scale = 2.05000
Li  -0.0000009635  8.9772938055  9.5522641935
Li  7.7745598100  4.4886468925  3.1840880645
Ca  0.0000072980  4.5533688775  3.1840880645
Ca  3.8312319825  11.1892495250  3.1840880645
Ca  -3.8312188215  11.1892495250  3.1840880645
Ca  7.7745515485  8.9125718205  9.5522641935
Ca  3.9433268640  2.2766911730  9.5522641935
Ca  11.6057776680  2.2766911730  9.5522641935
8
scale = 2.10000
Li  -0.0000009870  9.1962521910  9.7852462470
Li  7.9641832200  4.5981260850  3.2617487490
Ca  0.0000074760  4.6644266550  3.2617487490
Ca  3.9246766650  11.4621580500  3.2617487490
Ca  -3.9246631830  11.4621580500  3.2617487490
Ca  7.9641747570  9.1299516210  9.7852462470
Ca  4.0395055680  2.3322202260  9.7852462470
Ca  11.8888454160  2.3322202260  9.7852462470
8
scale = 2.15000
Li  -0.0000010105  9.4152105765  10.0182283005
Li  8.1538066300  4.7076052775  3.3394094335
Ca  0.0000076540  4.7754844325  3.3394094335
Ca  4.0181213475  11.7350665750  3.3394094335
Ca  -4.0181075445  11.7350665750  3.3394094335
Ca  8.1537979655  9.3473314215  10.0182283005
Ca  4.1356842720  2.3877492790  10.0182283005
Ca  12.1719131640  2.3877492790  10.0182283005
8
scale = 2.20000
Li  -0.0000010340  9.6341689620  10.2512103540
Li  8.3434300400  4.8170844700  3.4170701180
Ca  0.0000078320  4.8865422100  3.4170701180
Ca  4.1115660300  12.0079751000  3.4170701180
Ca  -4.1115519060  12.0079751000  3.4170701180
Ca  8.3434211740  9.5647112220  10.2512103540
Ca  4.2318629760  2.4432783320  10.2512103540
Ca  12.4549809120  2.4432783320  10.2512103540
8
scale = 2.25000
Li  -0.0000010575  9.8531273475  10.4841924075
Li  8.5330534500  4.9265636625  3.4947308025
Ca  0.0000080100  4.9975999875  3.4947308025
Ca  4.2050107125  12.2808836250  3.4947308025
Ca  -4.2049962675  12.2808836250  3.4947308025
Ca  8.5330443825  9.7820910225  10.4841924075
Ca  4.3280416800  2.4988073850  10.4841924075
Ca  12.7380486600  2.4988073850  10.4841924075
8
scale = 2.30000
Li  -0.0000010810  10.0720857330  10.7171744610
Li  8.7226768600  5.0360428550  3.5723914870
Ca  0.0000081880  5.1086577650  3.5723914870
Ca  4.2984553950  12.5537921500  3.5723914870
Ca  -4.2984406290  12.5537921500  3.5723914870
Ca  8.7226675910  9.9994708230  10.7171744610
Ca  4.4242203840  2.5543364380  10.7171744610
Ca  13.0211164080  2.5543364380  10.7171744610
8
scale = 2.35000
Li  -0.0000011045  10.2910441185  10.9501565145
Li  8.9123002700  5.1455220475  3.6500521715
Ca  0.0000083660  5.2197155425  3.6500521715
Ca  4.3919000775  12.8267006750  3.6500521715
Ca  -4.3918849905  12.8267006750  3.6500521715
Ca  8.9122907995  10.2168506235  10.9501565145
Ca  4.5203990880  2.6098654910  10.9501565145
Ca  13.3041841560  2.6098654910  10.9501565145
8
scale = 2.40000
Li  -0.0000011280  10.5100025040  11.1831385680
Li  9.1019236800  5.2550012400  3.7277128560
Ca  0.0000085440  5.3307733200  3.7277128560
Ca  4.4853447600  13.0996092000  3.7277128560
Ca  -4.4853293520  13.0996092000  3.7277128560
Ca  9.1019140080  10.4342304240  11.1831385680
Ca  4.6165777920  2.6653945440  11.1831385680
Ca  13.5872519040  2.6653945440  11.1831385680
8
scale = 2.45000
Li  -0.0000011515  10.7289608895  11.4161206215
Li  9.2915470900  5.3644804325  3.8053735405
Ca  0.0000087220  5.4418310975  3.8053735405
Ca  4.5787894425  13.3725177250  3.8053735405
Ca  -4.5787737135  13.3725177250  3.8053735405
Ca  9.2915372165  10.6516102245  11.4161206215
Ca  4.7127564960  2.7209235970  11.4161206215
Ca  13.8703196520  2.7209235970  11.4161206215
