4
scale = 0.75000
Li  0.0000000000  0.0000000000  0.0000000000
Ce  1.7767012500  1.7767012500  0.0000000000
Ce  -0.0000000000  1.7767012500  1.7767012500
Ce  1.7767012500  0.0000000000  1.7767012500
4
scale = 0.80000
Li  0.0000000000  0.0000000000  0.0000000000
Ce  1.8951480000  1.8951480000  0.0000000000
Ce  -0.0000000000  1.8951480000  1.8951480000
Ce  1.8951480000  0.0000000000  1.8951480000
4
scale = 0.85000
Li  0.0000000000  0.0000000000  0.0000000000
Ce  2.0135947500  2.0135947500  0.0000000000
Ce  -0.0000000000  2.0135947500  2.0135947500
Ce  2.0135947500  0.0000000000  2.0135947500
4
scale = 0.90000
Li  0.0000000000  0.0000000000  0.0000000000
Ce  2.1320415000  2.1320415000  0.0000000000
Ce  -0.0000000000  2.1320415000  2.1320415000
Ce  2.1320415000  0.0000000000  2.1320415000
4
scale = 0.95000
Li  0.0000000000  0.0000000000  0.0000000000
Ce  2.2504882500  2.2504882500  0.0000000000
Ce  -0.0000000000  2.2504882500  2.2504882500
Ce  2.2504882500  0.0000000000  2.2504882500
4
scale = 1.00000
Li  0.0000000000  0.0000000000  0.0000000000
Ce  2.3689350000  2.3689350000  0.0000000000
Ce  -0.0000000000  2.3689350000  2.3689350000
Ce  2.3689350000  0.0000000000  2.3689350000
4
scale = 1.05000
Li  0.0000000000  0.0000000000  0.0000000000
Ce  2.4873817500  2.4873817500  0.0000000000
Ce  -0.0000000000  2.4873817500  2.4873817500
Ce  2.4873817500  0.0000000000  2.4873817500
4
scale = 1.10000
Li  0.0000000000  0.0000000000  0.0000000000
Ce  2.6058285000  2.6058285000  0.0000000000
Ce  -0.0000000000  2.6058285000  2.6058285000
Ce  2.6058285000  0.0000000000  2.6058285000
4
scale = 1.15000
Li  0.0000000000  0.0000000000  0.0000000000
Ce  2.7242752500  2.7242752500  0.0000000000
Ce  -0.0000000000  2.7242752500  2.7242752500
Ce  2.7242752500  0.0000000000  2.7242752500
4
scale = 1.20000
Li  0.0000000000  0.0000000000  0.0000000000
Ce  2.8427220000  2.8427220000  0.0000000000
Ce  -0.0000000000  2.8427220000  2.8427220000
Ce  2.8427220000  0.0000000000  2.8427220000
4
scale = 1.25000
Li  0.0000000000  0.0000000000  0.0000000000
Ce  2.9611687500  2.9611687500  0.0000000000
Ce  -0.0000000000  2.9611687500  2.9611687500
Ce  2.9611687500  0.0000000000  2.9611687500
4
scale = 1.30000
Li  0.0000000000  0.0000000000  0.0000000000
Ce  3.0796155000  3.0796155000  0.0000000000
Ce  -0.0000000000  3.0796155000  3.0796155000
Ce  3.0796155000  0.0000000000  3.0796155000
4
scale = 1.35000
Li  0.0000000000  0.0000000000  0.0000000000
Ce  3.1980622500  3.1980622500  0.0000000000
Ce  -0.0000000000  3.1980622500  3.1980622500
Ce  3.1980622500  0.0000000000  3.1980622500
4
scale = 1.40000
Li  0.0000000000  0.0000000000  0.0000000000
Ce  3.3165090000  3.3165090000  0.0000000000
Ce  -0.0000000000  3.3165090000  3.3165090000
Ce  3.3165090000  0.0000000000  3.3165090000
4
scale = 1.45000
Li  0.0000000000  0.0000000000  0.0000000000
Ce  3.4349557500  3.4349557500  0.0000000000
Ce  -0.0000000000  3.4349557500  3.4349557500
Ce  3.4349557500  0.0000000000  3.4349557500
4
scale = 1.50000
Li  0.0000000000  0.0000000000  0.0000000000
Ce  3.5534025000  3.5534025000  0.0000000000
Ce  -0.0000000000  3.5534025000  3.5534025000
Ce  3.5534025000  0.0000000000  3.5534025000
4
scale = 1.55000
Li  0.0000000000  0.0000000000  0.0000000000
Ce  3.6718492500  3.6718492500  0.0000000000
Ce  -0.0000000000  3.6718492500  3.6718492500
Ce  3.6718492500  0.0000000000  3.6718492500
4
scale = 1.60000
Li  0.0000000000  0.0000000000  0.0000000000
Ce  3.7902960000  3.7902960000  0.0000000000
Ce  -0.0000000000  3.7902960000  3.7902960000
Ce  3.7902960000  0.0000000000  3.7902960000
4
scale = 1.65000
Li  0.0000000000  0.0000000000  0.0000000000
Ce  3.9087427500  3.9087427500  0.0000000000
Ce  -0.0000000000  3.9087427500  3.9087427500
Ce  3.9087427500  0.0000000000  3.9087427500
4
scale = 1.70000
Li  0.0000000000  0.0000000000  0.0000000000
Ce  4.0271895000  4.0271895000  0.0000000000
Ce  -0.0000000000  4.0271895000  4.0271895000
Ce  4.0271895000  0.0000000000  4.0271895000
4
scale = 1.75000
Li  0.0000000000  0.0000000000  0.0000000000
Ce  4.1456362500  4.1456362500  0.0000000000
Ce  -0.0000000000  4.1456362500  4.1456362500
Ce  4.1456362500  0.0000000000  4.1456362500
4
scale = 1.80000
Li  0.0000000000  0.0000000000  0.0000000000
Ce  4.2640830000  4.2640830000  0.0000000000
Ce  -0.0000000000  4.2640830000  4.2640830000
Ce  4.2640830000  0.0000000000  4.2640830000
4
scale = 1.85000
Li  0.0000000000  0.0000000000  0.0000000000
Ce  4.3825297500  4.3825297500  0.0000000000
Ce  -0.0000000000  4.3825297500  4.3825297500
Ce  4.3825297500  0.0000000000  4.3825297500
4
scale = 1.90000
Li  0.0000000000  0.0000000000  0.0000000000
Ce  4.5009765000  4.5009765000  0.0000000000
Ce  -0.0000000000  4.5009765000  4.5009765000
Ce  4.5009765000  0.0000000000  4.5009765000
4
scale = 1.95000
Li  0.0000000000  0.0000000000  0.0000000000
Ce  4.6194232500  4.6194232500  0.0000000000
Ce  -0.0000000000  4.6194232500  4.6194232500
Ce  4.6194232500  0.0000000000  4.6194232500
4
scale = 2.00000
Li  0.0000000000  0.0000000000  0.0000000000
Ce  4.7378700000  4.7378700000  0.0000000000
Ce  -0.0000000000  4.7378700000  4.7378700000
Ce  4.7378700000  0.0000000000  4.7378700000
4
scale = 2.05000
Li  0.0000000000  0.0000000000  0.0000000000
Ce  4.8563167500  4.8563167500  0.0000000000
Ce  -0.0000000000  4.8563167500  4.8563167500
Ce  4.8563167500  0.0000000000  4.8563167500
4
scale = 2.10000
Li  0.0000000000  0.0000000000  0.0000000000
Ce  4.9747635000  4.9747635000  0.0000000000
Ce  -0.0000000000  4.9747635000  4.9747635000
Ce  4.9747635000  0.0000000000  4.9747635000
4
scale = 2.15000
Li  0.0000000000  0.0000000000  0.0000000000
Ce  5.0932102500  5.0932102500  0.0000000000
Ce  -0.0000000000  5.0932102500  5.0932102500
Ce  5.0932102500  0.0000000000  5.0932102500
4
scale = 2.20000
Li  0.0000000000  0.0000000000  0.0000000000
Ce  5.2116570000  5.2116570000  0.0000000000
Ce  -0.0000000000  5.2116570000  5.2116570000
Ce  5.2116570000  0.0000000000  5.2116570000
4
scale = 2.25000
Li  0.0000000000  0.0000000000  0.0000000000
Ce  5.3301037500  5.3301037500  0.0000000000
Ce  -0.0000000000  5.3301037500  5.3301037500
Ce  5.3301037500  0.0000000000  5.3301037500
4
scale = 2.30000
Li  0.0000000000  0.0000000000  0.0000000000
Ce  5.4485505000  5.4485505000  0.0000000000
Ce  -0.0000000000  5.4485505000  5.4485505000
Ce  5.4485505000  0.0000000000  5.4485505000
4
scale = 2.35000
Li  0.0000000000  0.0000000000  0.0000000000
Ce  5.5669972500  5.5669972500  0.0000000000
Ce  -0.0000000000  5.5669972500  5.5669972500
Ce  5.5669972500  0.0000000000  5.5669972500
4
scale = 2.40000
Li  0.0000000000  0.0000000000  0.0000000000
Ce  5.6854440000  5.6854440000  0.0000000000
Ce  -0.0000000000  5.6854440000  5.6854440000
Ce  5.6854440000  0.0000000000  5.6854440000
4
scale = 2.45000
Li  0.0000000000  0.0000000000  0.0000000000
Ce  5.8038907500  5.8038907500  0.0000000000
Ce  -0.0000000000  5.8038907500  5.8038907500
Ce  5.8038907500  0.0000000000  5.8038907500
