4
scale = 0.75000
Li  0.0000000000  0.0000000000  1.7928004575
Li  -0.0000002100  1.6995238200  4.1767358325
Cl  0.0000000000  0.0000000000  4.7630265900
Cl  -0.0000002100  1.6995238200  2.3790864525
4
scale = 0.80000
Li  0.0000000000  0.0000000000  1.9123204880
Li  -0.0000002240  1.8128254080  4.4551848880
Cl  0.0000000000  0.0000000000  5.0805616960
Cl  -0.0000002240  1.8128254080  2.5376922160
4
scale = 0.85000
Li  0.0000000000  0.0000000000  2.0318405185
Li  -0.0000002380  1.9261269960  4.7336339435
Cl  0.0000000000  0.0000000000  5.3980968020
Cl  -0.0000002380  1.9261269960  2.6962979795
4
scale = 0.90000
Li  0.0000000000  0.0000000000  2.1513605490
Li  -0.0000002520  2.0394285840  5.0120829990
Cl  0.0000000000  0.0000000000  5.7156319080
Cl  -0.0000002520  2.0394285840  2.8549037430
4
scale = 0.95000
Li  0.0000000000  0.0000000000  2.2708805795
Li  -0.0000002660  2.1527301720  5.2905320545
Cl  0.0000000000  0.0000000000  6.0331670140
Cl  -0.0000002660  2.1527301720  3.0135095065
4
scale = 1.00000
Li  0.0000000000  0.0000000000  2.3904006100
Li  -0.0000002800  2.2660317600  5.5689811100
Cl  0.0000000000  0.0000000000  6.3507021200
Cl  -0.0000002800  2.2660317600  3.1721152700
4
scale = 1.05000
Li  0.0000000000  0.0000000000  2.5099206405
Li  -0.0000002940  2.3793333480  5.8474301655
Cl  0.0000000000  0.0000000000  6.6682372260
Cl  -0.0000002940  2.3793333480  3.3307210335
4
scale = 1.10000
Li  0.0000000000  0.0000000000  2.6294406710
Li  -0.0000003080  2.4926349360  6.1258792210
Cl  0.0000000000  0.0000000000  6.9857723320
Cl  -0.0000003080  2.4926349360  3.4893267970
4
scale = 1.15000
Li  0.0000000000  0.0000000000  2.7489607015
Li  -0.0000003220  2.6059365240  6.4043282765
Cl  0.0000000000  0.0000000000  7.3033074380
Cl  -0.0000003220  2.6059365240  3.6479325605
4
scale = 1.20000
Li  0.0000000000  0.0000000000  2.8684807320
Li  -0.0000003360  2.7192381120  6.6827773320
Cl  0.0000000000  0.0000000000  7.6208425440
Cl  -0.0000003360  2.7192381120  3.8065383240
4
scale = 1.25000
Li  0.0000000000  0.0000000000  2.9880007625
Li  -0.0000003500  2.8325397000  6.9612263875
Cl  0.0000000000  0.0000000000  7.9383776500
Cl  -0.0000003500  2.8325397000  3.9651440875
4
scale = 1.30000
Li  0.0000000000  0.0000000000  3.1075207930
Li  -0.0000003640  2.9458412880  7.2396754430
Cl  0.0000000000  0.0000000000  8.2559127560
Cl  -0.0000003640  2.9458412880  4.1237498510
4
scale = 1.35000
Li  0.0000000000  0.0000000000  3.2270408235
Li  -0.0000003780  3.0591428760  7.5181244985
Cl  0.0000000000  0.0000000000  8.5734478620
Cl  -0.0000003780  3.0591428760  4.2823556145
4
scale = 1.40000
Li  0.0000000000  0.0000000000  3.3465608540
Li  -0.0000003920  3.1724444640  7.7965735540
Cl  0.0000000000  0.0000000000  8.8909829680
Cl  -0.0000003920  3.1724444640  4.4409613780
4
scale = 1.45000
Li  0.0000000000  0.0000000000  3.4660808845
Li  -0.0000004060  3.2857460520  8.0750226095
Cl  0.0000000000  0.0000000000  9.2085180740
Cl  -0.0000004060  3.2857460520  4.5995671415
4
scale = 1.50000
Li  0.0000000000  0.0000000000  3.5856009150
Li  -0.0000004200  3.3990476400  8.3534716650
Cl  0.0000000000  0.0000000000  9.5260531800
Cl  -0.0000004200  3.3990476400  4.7581729050
4
scale = 1.55000
Li  0.0000000000  0.0000000000  3.7051209455
Li  -0.0000004340  3.5123492280  8.6319207205
Cl  0.0000000000  0.0000000000  9.8435882860
Cl  -0.0000004340  3.5123492280  4.9167786685
4
scale = 1.60000
Li  0.0000000000  0.0000000000  3.8246409760
Li  -0.0000004480  3.6256508160  8.9103697760
Cl  0.0000000000  0.0000000000  10.1611233920
Cl  -0.0000004480  3.6256508160  5.0753844320
4
scale = 1.65000
Li  0.0000000000  0.0000000000  3.9441610065
Li  -0.0000004620  3.7389524040  9.1888188315
Cl  0.0000000000  0.0000000000  10.4786584980
Cl  -0.0000004620  3.7389524040  5.2339901955
4
scale = 1.70000
Li  0.0000000000  0.0000000000  4.0636810370
Li  -0.0000004760  3.8522539920  9.4672678870
Cl  0.0000000000  0.0000000000  10.7961936040
Cl  -0.0000004760  3.8522539920  5.3925959590
4
scale = 1.75000
Li  0.0000000000  0.0000000000  4.1832010675
Li  -0.0000004900  3.9655555800  9.7457169425
Cl  0.0000000000  0.0000000000  11.1137287100
Cl  -0.0000004900  3.9655555800  5.5512017225
4
scale = 1.80000
Li  0.0000000000  0.0000000000  4.3027210980
Li  -0.0000005040  4.0788571680  10.0241659980
Cl  0.0000000000  0.0000000000  11.4312638160
Cl  -0.0000005040  4.0788571680  5.7098074860
4
scale = 1.85000
Li  0.0000000000  0.0000000000  4.4222411285
Li  -0.0000005180  4.1921587560  10.3026150535
Cl  0.0000000000  0.0000000000  11.7487989220
Cl  -0.0000005180  4.1921587560  5.8684132495
4
scale = 1.90000
Li  0.0000000000  0.0000000000  4.5417611590
Li  -0.0000005320  4.3054603440  10.5810641090
Cl  0.0000000000  0.0000000000  12.0663340280
Cl  -0.0000005320  4.3054603440  6.0270190130
4
scale = 1.95000
Li  0.0000000000  0.0000000000  4.6612811895
Li  -0.0000005460  4.4187619320  10.8595131645
Cl  0.0000000000  0.0000000000  12.3838691340
Cl  -0.0000005460  4.4187619320  6.1856247765
4
scale = 2.00000
Li  0.0000000000  0.0000000000  4.7808012200
Li  -0.0000005600  4.5320635200  11.1379622200
Cl  0.0000000000  0.0000000000  12.7014042400
Cl  -0.0000005600  4.5320635200  6.3442305400
4
scale = 2.05000
Li  0.0000000000  0.0000000000  4.9003212505
Li  -0.0000005740  4.6453651080  11.4164112755
Cl  0.0000000000  0.0000000000  13.0189393460
Cl  -0.0000005740  4.6453651080  6.5028363035
4
scale = 2.10000
Li  0.0000000000  0.0000000000  5.0198412810
Li  -0.0000005880  4.7586666960  11.6948603310
Cl  0.0000000000  0.0000000000  13.3364744520
Cl  -0.0000005880  4.7586666960  6.6614420670
4
scale = 2.15000
Li  0.0000000000  0.0000000000  5.1393613115
Li  -0.0000006020  4.8719682840  11.9733093865
Cl  0.0000000000  0.0000000000  13.6540095580
Cl  -0.0000006020  4.8719682840  6.8200478305
4
scale = 2.20000
Li  0.0000000000  0.0000000000  5.2588813420
Li  -0.0000006160  4.9852698720  12.2517584420
Cl  0.0000000000  0.0000000000  13.9715446640
Cl  -0.0000006160  4.9852698720  6.9786535940
4
scale = 2.25000
Li  0.0000000000  0.0000000000  5.3784013725
Li  -0.0000006300  5.0985714600  12.5302074975
Cl  0.0000000000  0.0000000000  14.2890797700
Cl  -0.0000006300  5.0985714600  7.1372593575
4
scale = 2.30000
Li  0.0000000000  0.0000000000  5.4979214030
Li  -0.0000006440  5.2118730480  12.8086565530
Cl  0.0000000000  0.0000000000  14.6066148760
Cl  -0.0000006440  5.2118730480  7.2958651210
4
scale = 2.35000
Li  0.0000000000  0.0000000000  5.6174414335
Li  -0.0000006580  5.3251746360  13.0871056085
Cl  0.0000000000  0.0000000000  14.9241499820
Cl  -0.0000006580  5.3251746360  7.4544708845
4
scale = 2.40000
Li  0.0000000000  0.0000000000  5.7369614640
Li  -0.0000006720  5.4384762240  13.3655546640
Cl  0.0000000000  0.0000000000  15.2416850880
Cl  -0.0000006720  5.4384762240  7.6130766480
4
scale = 2.45000
Li  0.0000000000  0.0000000000  5.8564814945
Li  -0.0000006860  5.5517778120  13.6440037195
Cl  0.0000000000  0.0000000000  15.5592201940
Cl  -0.0000006860  5.5517778120  7.7716824115
