4
scale = 0.75000
Li  2.6218172625  1.8539047650  4.5411207075
Cu  0.0000000000  0.0000000000  0.0000000000
Cu  1.7478805050  1.2359381550  3.0274178400
Cu  0.8739437475  0.6179715525  1.5137149725
4
scale = 0.80000
Li  2.7966050800  1.9774984160  4.8438620880
Cu  0.0000000000  0.0000000000  0.0000000000
Cu  1.8644058720  1.3183340320  3.2292456960
Cu  0.9322066640  0.6591696560  1.6146293040
4
scale = 0.85000
Li  2.9713928975  2.1010920670  5.1466034685
Cu  0.0000000000  0.0000000000  0.0000000000
Cu  1.9809312390  1.4007299090  3.4310735520
Cu  0.9904695805  0.7003677595  1.7155436355
4
scale = 0.90000
Li  3.1461807150  2.2246857180  5.4493448490
Cu  0.0000000000  0.0000000000  0.0000000000
Cu  2.0974566060  1.4831257860  3.6329014080
Cu  1.0487324970  0.7415658630  1.8164579670
4
scale = 0.95000
Li  3.3209685325  2.3482793690  5.7520862295
Cu  0.0000000000  0.0000000000  0.0000000000
Cu  2.2139819730  1.5655216630  3.8347292640
Cu  1.1069954135  0.7827639665  1.9173722985
4
scale = 1.00000
Li  3.4957563500  2.4718730200  6.0548276100
Cu  0.0000000000  0.0000000000  0.0000000000
Cu  2.3305073400  1.6479175400  4.0365571200
Cu  1.1652583300  0.8239620700  2.0182866300
4
scale = 1.05000
Li  3.6705441675  2.5954666710  6.3575689905
Cu  0.0000000000  0.0000000000  0.0000000000
Cu  2.4470327070  1.7303134170  4.2383849760
Cu  1.2235212465  0.8651601735  2.1192009615
4
scale = 1.10000
Li  3.8453319850  2.7190603220  6.6603103710
Cu  0.0000000000  0.0000000000  0.0000000000
Cu  2.5635580740  1.8127092940  4.4402128320
Cu  1.2817841630  0.9063582770  2.2201152930
4
scale = 1.15000
Li  4.0201198025  2.8426539730  6.9630517515
Cu  0.0000000000  0.0000000000  0.0000000000
Cu  2.6800834410  1.8951051710  4.6420406880
Cu  1.3400470795  0.9475563805  2.3210296245
4
scale = 1.20000
Li  4.1949076200  2.9662476240  7.2657931320
Cu  0.0000000000  0.0000000000  0.0000000000
Cu  2.7966088080  1.9775010480  4.8438685440
Cu  1.3983099960  0.9887544840  2.4219439560
4
scale = 1.25000
Li  4.3696954375  3.0898412750  7.5685345125
Cu  0.0000000000  0.0000000000  0.0000000000
Cu  2.9131341750  2.0598969250  5.0456964000
Cu  1.4565729125  1.0299525875  2.5228582875
4
scale = 1.30000
Li  4.5444832550  3.2134349260  7.8712758930
Cu  0.0000000000  0.0000000000  0.0000000000
Cu  3.0296595420  2.1422928020  5.2475242560
Cu  1.5148358290  1.0711506910  2.6237726190
4
scale = 1.35000
Li  4.7192710725  3.3370285770  8.1740172735
Cu  0.0000000000  0.0000000000  0.0000000000
Cu  3.1461849090  2.2246886790  5.4493521120
Cu  1.5730987455  1.1123487945  2.7246869505
4
scale = 1.40000
Li  4.8940588900  3.4606222280  8.4767586540
Cu  0.0000000000  0.0000000000  0.0000000000
Cu  3.2627102760  2.3070845560  5.6511799680
Cu  1.6313616620  1.1535468980  2.8256012820
4
scale = 1.45000
Li  5.0688467075  3.5842158790  8.7795000345
Cu  0.0000000000  0.0000000000  0.0000000000
Cu  3.3792356430  2.3894804330  5.8530078240
Cu  1.6896245785  1.1947450015  2.9265156135
4
scale = 1.50000
Li  5.2436345250  3.7078095300  9.0822414150
Cu  0.0000000000  0.0000000000  0.0000000000
Cu  3.4957610100  2.4718763100  6.0548356800
Cu  1.7478874950  1.2359431050  3.0274299450
4
scale = 1.55000
Li  5.4184223425  3.8314031810  9.3849827955
Cu  0.0000000000  0.0000000000  0.0000000000
Cu  3.6122863770  2.5542721870  6.2566635360
Cu  1.8061504115  1.2771412085  3.1283442765
4
scale = 1.60000
Li  5.5932101600  3.9549968320  9.6877241760
Cu  0.0000000000  0.0000000000  0.0000000000
Cu  3.7288117440  2.6366680640  6.4584913920
Cu  1.8644133280  1.3183393120  3.2292586080
4
scale = 1.65000
Li  5.7679979775  4.0785904830  9.9904655565
Cu  0.0000000000  0.0000000000  0.0000000000
Cu  3.8453371110  2.7190639410  6.6603192480
Cu  1.9226762445  1.3595374155  3.3301729395
4
scale = 1.70000
Li  5.9427857950  4.2021841340  10.2932069370
Cu  0.0000000000  0.0000000000  0.0000000000
Cu  3.9618624780  2.8014598180  6.8621471040
Cu  1.9809391610  1.4007355190  3.4310872710
4
scale = 1.75000
Li  6.1175736125  4.3257777850  10.5959483175
Cu  0.0000000000  0.0000000000  0.0000000000
Cu  4.0783878450  2.8838556950  7.0639749600
Cu  2.0392020775  1.4419336225  3.5320016025
4
scale = 1.80000
Li  6.2923614300  4.4493714360  10.8986896980
Cu  0.0000000000  0.0000000000  0.0000000000
Cu  4.1949132120  2.9662515720  7.2658028160
Cu  2.0974649940  1.4831317260  3.6329159340
4
scale = 1.85000
Li  6.4671492475  4.5729650870  11.2014310785
Cu  0.0000000000  0.0000000000  0.0000000000
Cu  4.3114385790  3.0486474490  7.4676306720
Cu  2.1557279105  1.5243298295  3.7338302655
4
scale = 1.90000
Li  6.6419370650  4.6965587380  11.5041724590
Cu  0.0000000000  0.0000000000  0.0000000000
Cu  4.4279639460  3.1310433260  7.6694585280
Cu  2.2139908270  1.5655279330  3.8347445970
4
scale = 1.95000
Li  6.8167248825  4.8201523890  11.8069138395
Cu  0.0000000000  0.0000000000  0.0000000000
Cu  4.5444893130  3.2134392030  7.8712863840
Cu  2.2722537435  1.6067260365  3.9356589285
4
scale = 2.00000
Li  6.9915127000  4.9437460400  12.1096552200
Cu  0.0000000000  0.0000000000  0.0000000000
Cu  4.6610146800  3.2958350800  8.0731142400
Cu  2.3305166600  1.6479241400  4.0365732600
4
scale = 2.05000
Li  7.1663005175  5.0673396910  12.4123966005
Cu  0.0000000000  0.0000000000  0.0000000000
Cu  4.7775400470  3.3782309570  8.2749420960
Cu  2.3887795765  1.6891222435  4.1374875915
4
scale = 2.10000
Li  7.3410883350  5.1909333420  12.7151379810
Cu  0.0000000000  0.0000000000  0.0000000000
Cu  4.8940654140  3.4606268340  8.4767699520
Cu  2.4470424930  1.7303203470  4.2384019230
4
scale = 2.15000
Li  7.5158761525  5.3145269930  13.0178793615
Cu  0.0000000000  0.0000000000  0.0000000000
Cu  5.0105907810  3.5430227110  8.6785978080
Cu  2.5053054095  1.7715184505  4.3393162545
4
scale = 2.20000
Li  7.6906639700  5.4381206440  13.3206207420
Cu  0.0000000000  0.0000000000  0.0000000000
Cu  5.1271161480  3.6254185880  8.8804256640
Cu  2.5635683260  1.8127165540  4.4402305860
4
scale = 2.25000
Li  7.8654517875  5.5617142950  13.6233621225
Cu  0.0000000000  0.0000000000  0.0000000000
Cu  5.2436415150  3.7078144650  9.0822535200
Cu  2.6218312425  1.8539146575  4.5411449175
4
scale = 2.30000
Li  8.0402396050  5.6853079460  13.9261035030
Cu  0.0000000000  0.0000000000  0.0000000000
Cu  5.3601668820  3.7902103420  9.2840813760
Cu  2.6800941590  1.8951127610  4.6420592490
4
scale = 2.35000
Li  8.2150274225  5.8089015970  14.2288448835
Cu  0.0000000000  0.0000000000  0.0000000000
Cu  5.4766922490  3.8726062190  9.4859092320
Cu  2.7383570755  1.9363108645  4.7429735805
4
scale = 2.40000
Li  8.3898152400  5.9324952480  14.5315862640
Cu  0.0000000000  0.0000000000  0.0000000000
Cu  5.5932176160  3.9550020960  9.6877370880
Cu  2.7966199920  1.9775089680  4.8438879120
4
scale = 2.45000
Li  8.5646030575  6.0560888990  14.8343276445
Cu  0.0000000000  0.0000000000  0.0000000000
Cu  5.7097429830  4.0373979730  9.8895649440
Cu  2.8548829085  2.0187070715  4.9448022435
