8
scale = 0.75000
Li  1.9005690825  1.0972940700  0.7802930175
Li  0.0000004500  2.1945881400  2.3408790525
Cu  2.8550383125  0.5462308725  2.3408790525
Cu  0.9460996200  0.5462308725  2.3408790525
Cu  1.9005693075  2.1994204725  2.3408790525
Cu  -0.9544687800  2.7456513375  0.7802930175
Cu  0.9544699125  2.7456513375  0.7802930175
Cu  0.0000002250  1.0924617375  0.7802930175
8
scale = 0.80000
Li  2.0272736880  1.1704470080  0.8323125520
Li  0.0000004800  2.3408940160  2.4969376560
Cu  3.0453742000  0.5826462640  2.4969376560
Cu  1.0091729280  0.5826462640  2.4969376560
Cu  2.0272739280  2.3460485040  2.4969376560
Cu  -1.0181000320  2.9286947600  0.8323125520
Cu  1.0181012400  2.9286947600  0.8323125520
Cu  0.0000002400  1.1652925200  0.8323125520
8
scale = 0.85000
Li  2.1539782935  1.2435999460  0.8843320865
Li  0.0000005100  2.4871998920  2.6529962595
Cu  3.2357100875  0.6190616555  2.6529962595
Cu  1.0722462360  0.6190616555  2.6529962595
Cu  2.1539785485  2.4926765355  2.6529962595
Cu  -1.0817312840  3.1117381825  0.8843320865
Cu  1.0817325675  3.1117381825  0.8843320865
Cu  0.0000002550  1.2381233025  0.8843320865
8
scale = 0.90000
Li  2.2806828990  1.3167528840  0.9363516210
Li  0.0000005400  2.6335057680  2.8090548630
Cu  3.4260459750  0.6554770470  2.8090548630
Cu  1.1353195440  0.6554770470  2.8090548630
Cu  2.2806831690  2.6393045670  2.8090548630
Cu  -1.1453625360  3.2947816050  0.9363516210
Cu  1.1453638950  3.2947816050  0.9363516210
Cu  0.0000002700  1.3109540850  0.9363516210
8
scale = 0.95000
Li  2.4073875045  1.3899058220  0.9883711555
Li  0.0000005700  2.7798116440  2.9651134665
Cu  3.6163818625  0.6918924385  2.9651134665
Cu  1.1983928520  0.6918924385  2.9651134665
Cu  2.4073877895  2.7859325985  2.9651134665
Cu  -1.2089937880  3.4778250275  0.9883711555
Cu  1.2089952225  3.4778250275  0.9883711555
Cu  0.0000002850  1.3837848675  0.9883711555
8
scale = 1.00000
Li  2.5340921100  1.4630587600  1.0403906900
Li  0.0000006000  2.9261175200  3.1211720700
Cu  3.8067177500  0.7283078300  3.1211720700
Cu  1.2614661600  0.7283078300  3.1211720700
Cu  2.5340924100  2.9325606300  3.1211720700
Cu  -1.2726250400  3.6608684500  1.0403906900
Cu  1.2726265500  3.6608684500  1.0403906900
Cu  0.0000003000  1.4566156500  1.0403906900
8
scale = 1.05000
Li  2.6607967155  1.5362116980  1.0924102245
Li  0.0000006300  3.0724233960  3.2772306735
Cu  3.9970536375  0.7647232215  3.2772306735
Cu  1.3245394680  0.7647232215  3.2772306735
Cu  2.6607970305  3.0791886615  3.2772306735
Cu  -1.3362562920  3.8439118725  1.0924102245
Cu  1.3362578775  3.8439118725  1.0924102245
Cu  0.0000003150  1.5294464325  1.0924102245
8
scale = 1.10000
Li  2.7875013210  1.6093646360  1.1444297590
Li  0.0000006600  3.2187292720  3.4332892770
Cu  4.1873895250  0.8011386130  3.4332892770
Cu  1.3876127760  0.8011386130  3.4332892770
Cu  2.7875016510  3.2258166930  3.4332892770
Cu  -1.3998875440  4.0269552950  1.1444297590
Cu  1.3998892050  4.0269552950  1.1444297590
Cu  0.0000003300  1.6022772150  1.1444297590
8
scale = 1.15000
Li  2.9142059265  1.6825175740  1.1964492935
Li  0.0000006900  3.3650351480  3.5893478805
Cu  4.3777254125  0.8375540045  3.5893478805
Cu  1.4506860840  0.8375540045  3.5893478805
Cu  2.9142062715  3.3724447245  3.5893478805
Cu  -1.4635187960  4.2099987175  1.1964492935
Cu  1.4635205325  4.2099987175  1.1964492935
Cu  0.0000003450  1.6751079975  1.1964492935
8
scale = 1.20000
Li  3.0409105320  1.7556705120  1.2484688280
Li  0.0000007200  3.5113410240  3.7454064840
Cu  4.5680613000  0.8739693960  3.7454064840
Cu  1.5137593920  0.8739693960  3.7454064840
Cu  3.0409108920  3.5190727560  3.7454064840
Cu  -1.5271500480  4.3930421400  1.2484688280
Cu  1.5271518600  4.3930421400  1.2484688280
Cu  0.0000003600  1.7479387800  1.2484688280
8
scale = 1.25000
Li  3.1676151375  1.8288234500  1.3004883625
Li  0.0000007500  3.6576469000  3.9014650875
Cu  4.7583971875  0.9103847875  3.9014650875
Cu  1.5768327000  0.9103847875  3.9014650875
Cu  3.1676155125  3.6657007875  3.9014650875
Cu  -1.5907813000  4.5760855625  1.3004883625
Cu  1.5907831875  4.5760855625  1.3004883625
Cu  0.0000003750  1.8207695625  1.3004883625
8
scale = 1.30000
Li  3.2943197430  1.9019763880  1.3525078970
Li  0.0000007800  3.8039527760  4.0575236910
Cu  4.9487330750  0.9468001790  4.0575236910
Cu  1.6399060080  0.9468001790  4.0575236910
Cu  3.2943201330  3.8123288190  4.0575236910
Cu  -1.6544125520  4.7591289850  1.3525078970
Cu  1.6544145150  4.7591289850  1.3525078970
Cu  0.0000003900  1.8936003450  1.3525078970
8
scale = 1.35000
Li  3.4210243485  1.9751293260  1.4045274315
Li  0.0000008100  3.9502586520  4.2135822945
Cu  5.1390689625  0.9832155705  4.2135822945
Cu  1.7029793160  0.9832155705  4.2135822945
Cu  3.4210247535  3.9589568505  4.2135822945
Cu  -1.7180438040  4.9421724075  1.4045274315
Cu  1.7180458425  4.9421724075  1.4045274315
Cu  0.0000004050  1.9664311275  1.4045274315
8
scale = 1.40000
Li  3.5477289540  2.0482822640  1.4565469660
Li  0.0000008400  4.0965645280  4.3696408980
Cu  5.3294048500  1.0196309620  4.3696408980
Cu  1.7660526240  1.0196309620  4.3696408980
Cu  3.5477293740  4.1055848820  4.3696408980
Cu  -1.7816750560  5.1252158300  1.4565469660
Cu  1.7816771700  5.1252158300  1.4565469660
Cu  0.0000004200  2.0392619100  1.4565469660
8
scale = 1.45000
Li  3.6744335595  2.1214352020  1.5085665005
Li  0.0000008700  4.2428704040  4.5256995015
Cu  5.5197407375  1.0560463535  4.5256995015
Cu  1.8291259320  1.0560463535  4.5256995015
Cu  3.6744339945  4.2522129135  4.5256995015
Cu  -1.8453063080  5.3082592525  1.5085665005
Cu  1.8453084975  5.3082592525  1.5085665005
Cu  0.0000004350  2.1120926925  1.5085665005
8
scale = 1.50000
Li  3.8011381650  2.1945881400  1.5605860350
Li  0.0000009000  4.3891762800  4.6817581050
Cu  5.7100766250  1.0924617450  4.6817581050
Cu  1.8921992400  1.0924617450  4.6817581050
Cu  3.8011386150  4.3988409450  4.6817581050
Cu  -1.9089375600  5.4913026750  1.5605860350
Cu  1.9089398250  5.4913026750  1.5605860350
Cu  0.0000004500  2.1849234750  1.5605860350
8
scale = 1.55000
Li  3.9278427705  2.2677410780  1.6126055695
Li  0.0000009300  4.5354821560  4.8378167085
Cu  5.9004125125  1.1288771365  4.8378167085
Cu  1.9552725480  1.1288771365  4.8378167085
Cu  3.9278432355  4.5454689765  4.8378167085
Cu  -1.9725688120  5.6743460975  1.6126055695
Cu  1.9725711525  5.6743460975  1.6126055695
Cu  0.0000004650  2.2577542575  1.6126055695
8
scale = 1.60000
Li  4.0545473760  2.3408940160  1.6646251040
Li  0.0000009600  4.6817880320  4.9938753120
Cu  6.0907484000  1.1652925280  4.9938753120
Cu  2.0183458560  1.1652925280  4.9938753120
Cu  4.0545478560  4.6920970080  4.9938753120
Cu  -2.0362000640  5.8573895200  1.6646251040
Cu  2.0362024800  5.8573895200  1.6646251040
Cu  0.0000004800  2.3305850400  1.6646251040
8
scale = 1.65000
Li  4.1812519815  2.4140469540  1.7166446385
Li  0.0000009900  4.8280939080  5.1499339155
Cu  6.2810842875  1.2017079195  5.1499339155
Cu  2.0814191640  1.2017079195  5.1499339155
Cu  4.1812524765  4.8387250395  5.1499339155
Cu  -2.0998313160  6.0404329425  1.7166446385
Cu  2.0998338075  6.0404329425  1.7166446385
Cu  0.0000004950  2.4034158225  1.7166446385
8
scale = 1.70000
Li  4.3079565870  2.4871998920  1.7686641730
Li  0.0000010200  4.9743997840  5.3059925190
Cu  6.4714201750  1.2381233110  5.3059925190
Cu  2.1444924720  1.2381233110  5.3059925190
Cu  4.3079570970  4.9853530710  5.3059925190
Cu  -2.1634625680  6.2234763650  1.7686641730
Cu  2.1634651350  6.2234763650  1.7686641730
Cu  0.0000005100  2.4762466050  1.7686641730
8
scale = 1.75000
Li  4.4346611925  2.5603528300  1.8206837075
Li  0.0000010500  5.1207056600  5.4620511225
Cu  6.6617560625  1.2745387025  5.4620511225
Cu  2.2075657800  1.2745387025  5.4620511225
Cu  4.4346617175  5.1319811025  5.4620511225
Cu  -2.2270938200  6.4065197875  1.8206837075
Cu  2.2270964625  6.4065197875  1.8206837075
Cu  0.0000005250  2.5490773875  1.8206837075
8
scale = 1.80000
Li  4.5613657980  2.6335057680  1.8727032420
Li  0.0000010800  5.2670115360  5.6181097260
Cu  6.8520919500  1.3109540940  5.6181097260
Cu  2.2706390880  1.3109540940  5.6181097260
Cu  4.5613663380  5.2786091340  5.6181097260
Cu  -2.2907250720  6.5895632100  1.8727032420
Cu  2.2907277900  6.5895632100  1.8727032420
Cu  0.0000005400  2.6219081700  1.8727032420
8
scale = 1.85000
Li  4.6880704035  2.7066587060  1.9247227765
Li  0.0000011100  5.4133174120  5.7741683295
Cu  7.0424278375  1.3473694855  5.7741683295
Cu  2.3337123960  1.3473694855  5.7741683295
Cu  4.6880709585  5.4252371655  5.7741683295
Cu  -2.3543563240  6.7726066325  1.9247227765
Cu  2.3543591175  6.7726066325  1.9247227765
Cu  0.0000005550  2.6947389525  1.9247227765
8
scale = 1.90000
Li  4.8147750090  2.7798116440  1.9767423110
Li  0.0000011400  5.5596232880  5.9302269330
Cu  7.2327637250  1.3837848770  5.9302269330
Cu  2.3967857040  1.3837848770  5.9302269330
Cu  4.8147755790  5.5718651970  5.9302269330
Cu  -2.4179875760  6.9556500550  1.9767423110
Cu  2.4179904450  6.9556500550  1.9767423110
Cu  0.0000005700  2.7675697350  1.9767423110
8
scale = 1.95000
Li  4.9414796145  2.8529645820  2.0287618455
Li  0.0000011700  5.7059291640  6.0862855365
Cu  7.4230996125  1.4202002685  6.0862855365
Cu  2.4598590120  1.4202002685  6.0862855365
Cu  4.9414801995  5.7184932285  6.0862855365
Cu  -2.4816188280  7.1386934775  2.0287618455
Cu  2.4816217725  7.1386934775  2.0287618455
Cu  0.0000005850  2.8404005175  2.0287618455
8
scale = 2.00000
Li  5.0681842200  2.9261175200  2.0807813800
Li  0.0000012000  5.8522350400  6.2423441400
Cu  7.6134355000  1.4566156600  6.2423441400
Cu  2.5229323200  1.4566156600  6.2423441400
Cu  5.0681848200  5.8651212600  6.2423441400
Cu  -2.5452500800  7.3217369000  2.0807813800
Cu  2.5452531000  7.3217369000  2.0807813800
Cu  0.0000006000  2.9132313000  2.0807813800
8
scale = 2.05000
Li  5.1948888255  2.9992704580  2.1328009145
Li  0.0000012300  5.9985409160  6.3984027435
Cu  7.8037713875  1.4930310515  6.3984027435
Cu  2.5860056280  1.4930310515  6.3984027435
Cu  5.1948894405  6.0117492915  6.3984027435
Cu  -2.6088813320  7.5047803225  2.1328009145
Cu  2.6088844275  7.5047803225  2.1328009145
Cu  0.0000006150  2.9860620825  2.1328009145
8
scale = 2.10000
Li  5.3215934310  3.0724233960  2.1848204490
Li  0.0000012600  6.1448467920  6.5544613470
Cu  7.9941072750  1.5294464430  6.5544613470
Cu  2.6490789360  1.5294464430  6.5544613470
Cu  5.3215940610  6.1583773230  6.5544613470
Cu  -2.6725125840  7.6878237450  2.1848204490
Cu  2.6725157550  7.6878237450  2.1848204490
Cu  0.0000006300  3.0588928650  2.1848204490
8
scale = 2.15000
Li  5.4482980365  3.1455763340  2.2368399835
Li  0.0000012900  6.2911526680  6.7105199505
Cu  8.1844431625  1.5658618345  6.7105199505
Cu  2.7121522440  1.5658618345  6.7105199505
Cu  5.4482986815  6.3050053545  6.7105199505
Cu  -2.7361438360  7.8708671675  2.2368399835
Cu  2.7361470825  7.8708671675  2.2368399835
Cu  0.0000006450  3.1317236475  2.2368399835
8
scale = 2.20000
Li  5.5750026420  3.2187292720  2.2888595180
Li  0.0000013200  6.4374585440  6.8665785540
Cu  8.3747790500  1.6022772260  6.8665785540
Cu  2.7752255520  1.6022772260  6.8665785540
Cu  5.5750033020  6.4516333860  6.8665785540
Cu  -2.7997750880  8.0539105900  2.2888595180
Cu  2.7997784100  8.0539105900  2.2888595180
Cu  0.0000006600  3.2045544300  2.2888595180
8
scale = 2.25000
Li  5.7017072475  3.2918822100  2.3408790525
Li  0.0000013500  6.5837644200  7.0226371575
Cu  8.5651149375  1.6386926175  7.0226371575
Cu  2.8382988600  1.6386926175  7.0226371575
Cu  5.7017079225  6.5982614175  7.0226371575
Cu  -2.8634063400  8.2369540125  2.3408790525
Cu  2.8634097375  8.2369540125  2.3408790525
Cu  0.0000006750  3.2773852125  2.3408790525
8
scale = 2.30000
Li  5.8284118530  3.3650351480  2.3928985870
Li  0.0000013800  6.7300702960  7.1786957610
Cu  8.7554508250  1.6751080090  7.1786957610
Cu  2.9013721680  1.6751080090  7.1786957610
Cu  5.8284125430  6.7448894490  7.1786957610
Cu  -2.9270375920  8.4199974350  2.3928985870
Cu  2.9270410650  8.4199974350  2.3928985870
Cu  0.0000006900  3.3502159950  2.3928985870
8
scale = 2.35000
Li  5.9551164585  3.4381880860  2.4449181215
Li  0.0000014100  6.8763761720  7.3347543645
Cu  8.9457867125  1.7115234005  7.3347543645
Cu  2.9644454760  1.7115234005  7.3347543645
Cu  5.9551171635  6.8915174805  7.3347543645
Cu  -2.9906688440  8.6030408575  2.4449181215
Cu  2.9906723925  8.6030408575  2.4449181215
Cu  0.0000007050  3.4230467775  2.4449181215
8
scale = 2.40000
Li  6.0818210640  3.5113410240  2.4969376560
Li  0.0000014400  7.0226820480  7.4908129680
Cu  9.1361226000  1.7479387920  7.4908129680
Cu  3.0275187840  1.7479387920  7.4908129680
Cu  6.0818217840  7.0381455120  7.4908129680
Cu  -3.0543000960  8.7860842800  2.4969376560
Cu  3.0543037200  8.7860842800  2.4969376560
Cu  0.0000007200  3.4958775600  2.4969376560
8
scale = 2.45000
Li  6.2085256695  3.5844939620  2.5489571905
Li  0.0000014700  7.1689879240  7.6468715715
Cu  9.3264584875  1.7843541835  7.6468715715
Cu  3.0905920920  1.7843541835  7.6468715715
Cu  6.2085264045  7.1847735435  7.6468715715
Cu  -3.1179313480  8.9691277025  2.5489571905
Cu  3.1179350475  8.9691277025  2.5489571905
Cu  0.0000007350  3.5687083425  2.5489571905
