4
scale = 0.75000
Li  0.0000000000  0.0000000000  0.0000000000
Cu  1.7194803000  0.6014091825  -0.5660595450
Cu  0.2511516675  1.8042251325  -0.5660595450
Cu  0.9853189425  1.2028207650  -2.2207664175
4
scale = 0.80000
Li  0.0000000000  0.0000000000  0.0000000000
Cu  1.8341123200  0.6415031280  -0.6037968480
Cu  0.2678951120  1.9245068080  -0.6037968480
Cu  1.0510068720  1.2830088160  -2.3688175120
4
scale = 0.85000
Li  0.0000000000  0.0000000000  0.0000000000
Cu  1.9487443400  0.6815970735  -0.6415341510
Cu  0.2846385565  2.0447884835  -0.6415341510
Cu  1.1166948015  1.3631968670  -2.5168686065
4
scale = 0.90000
Li  0.0000000000  0.0000000000  0.0000000000
Cu  2.0633763600  0.7216910190  -0.6792714540
Cu  0.3013820010  2.1650701590  -0.6792714540
Cu  1.1823827310  1.4433849180  -2.6649197010
4
scale = 0.95000
Li  0.0000000000  0.0000000000  0.0000000000
Cu  2.1780083800  0.7617849645  -0.7170087570
Cu  0.3181254455  2.2853518345  -0.7170087570
Cu  1.2480706605  1.5235729690  -2.8129707955
4
scale = 1.00000
Li  0.0000000000  0.0000000000  0.0000000000
Cu  2.2926404000  0.8018789100  -0.7547460600
Cu  0.3348688900  2.4056335100  -0.7547460600
Cu  1.3137585900  1.6037610200  -2.9610218900
4
scale = 1.05000
Li  0.0000000000  0.0000000000  0.0000000000
Cu  2.4072724200  0.8419728555  -0.7924833630
Cu  0.3516123345  2.5259151855  -0.7924833630
Cu  1.3794465195  1.6839490710  -3.1090729845
4
scale = 1.10000
Li  0.0000000000  0.0000000000  0.0000000000
Cu  2.5219044400  0.8820668010  -0.8302206660
Cu  0.3683557790  2.6461968610  -0.8302206660
Cu  1.4451344490  1.7641371220  -3.2571240790
4
scale = 1.15000
Li  0.0000000000  0.0000000000  0.0000000000
Cu  2.6365364600  0.9221607465  -0.8679579690
Cu  0.3850992235  2.7664785365  -0.8679579690
Cu  1.5108223785  1.8443251730  -3.4051751735
4
scale = 1.20000
Li  0.0000000000  0.0000000000  0.0000000000
Cu  2.7511684800  0.9622546920  -0.9056952720
Cu  0.4018426680  2.8867602120  -0.9056952720
Cu  1.5765103080  1.9245132240  -3.5532262680
4
scale = 1.25000
Li  0.0000000000  0.0000000000  0.0000000000
Cu  2.8658005000  1.0023486375  -0.9434325750
Cu  0.4185861125  3.0070418875  -0.9434325750
Cu  1.6421982375  2.0047012750  -3.7012773625
4
scale = 1.30000
Li  0.0000000000  0.0000000000  0.0000000000
Cu  2.9804325200  1.0424425830  -0.9811698780
Cu  0.4353295570  3.1273235630  -0.9811698780
Cu  1.7078861670  2.0848893260  -3.8493284570
4
scale = 1.35000
Li  0.0000000000  0.0000000000  0.0000000000
Cu  3.0950645400  1.0825365285  -1.0189071810
Cu  0.4520730015  3.2476052385  -1.0189071810
Cu  1.7735740965  2.1650773770  -3.9973795515
4
scale = 1.40000
Li  0.0000000000  0.0000000000  0.0000000000
Cu  3.2096965600  1.1226304740  -1.0566444840
Cu  0.4688164460  3.3678869140  -1.0566444840
Cu  1.8392620260  2.2452654280  -4.1454306460
4
scale = 1.45000
Li  0.0000000000  0.0000000000  0.0000000000
Cu  3.3243285800  1.1627244195  -1.0943817870
Cu  0.4855598905  3.4881685895  -1.0943817870
Cu  1.9049499555  2.3254534790  -4.2934817405
4
scale = 1.50000
Li  0.0000000000  0.0000000000  0.0000000000
Cu  3.4389606000  1.2028183650  -1.1321190900
Cu  0.5023033350  3.6084502650  -1.1321190900
Cu  1.9706378850  2.4056415300  -4.4415328350
4
scale = 1.55000
Li  0.0000000000  0.0000000000  0.0000000000
Cu  3.5535926200  1.2429123105  -1.1698563930
Cu  0.5190467795  3.7287319405  -1.1698563930
Cu  2.0363258145  2.4858295810  -4.5895839295
4
scale = 1.60000
Li  0.0000000000  0.0000000000  0.0000000000
Cu  3.6682246400  1.2830062560  -1.2075936960
Cu  0.5357902240  3.8490136160  -1.2075936960
Cu  2.1020137440  2.5660176320  -4.7376350240
4
scale = 1.65000
Li  0.0000000000  0.0000000000  0.0000000000
Cu  3.7828566600  1.3231002015  -1.2453309990
Cu  0.5525336685  3.9692952915  -1.2453309990
Cu  2.1677016735  2.6462056830  -4.8856861185
4
scale = 1.70000
Li  0.0000000000  0.0000000000  0.0000000000
Cu  3.8974886800  1.3631941470  -1.2830683020
Cu  0.5692771130  4.0895769670  -1.2830683020
Cu  2.2333896030  2.7263937340  -5.0337372130
4
scale = 1.75000
Li  0.0000000000  0.0000000000  0.0000000000
Cu  4.0121207000  1.4032880925  -1.3208056050
Cu  0.5860205575  4.2098586425  -1.3208056050
Cu  2.2990775325  2.8065817850  -5.1817883075
4
scale = 1.80000
Li  0.0000000000  0.0000000000  0.0000000000
Cu  4.1267527200  1.4433820380  -1.3585429080
Cu  0.6027640020  4.3301403180  -1.3585429080
Cu  2.3647654620  2.8867698360  -5.3298394020
4
scale = 1.85000
Li  0.0000000000  0.0000000000  0.0000000000
Cu  4.2413847400  1.4834759835  -1.3962802110
Cu  0.6195074465  4.4504219935  -1.3962802110
Cu  2.4304533915  2.9669578870  -5.4778904965
4
scale = 1.90000
Li  0.0000000000  0.0000000000  0.0000000000
Cu  4.3560167600  1.5235699290  -1.4340175140
Cu  0.6362508910  4.5707036690  -1.4340175140
Cu  2.4961413210  3.0471459380  -5.6259415910
4
scale = 1.95000
Li  0.0000000000  0.0000000000  0.0000000000
Cu  4.4706487800  1.5636638745  -1.4717548170
Cu  0.6529943355  4.6909853445  -1.4717548170
Cu  2.5618292505  3.1273339890  -5.7739926855
4
scale = 2.00000
Li  0.0000000000  0.0000000000  0.0000000000
Cu  4.5852808000  1.6037578200  -1.5094921200
Cu  0.6697377800  4.8112670200  -1.5094921200
Cu  2.6275171800  3.2075220400  -5.9220437800
4
scale = 2.05000
Li  0.0000000000  0.0000000000  0.0000000000
Cu  4.6999128200  1.6438517655  -1.5472294230
Cu  0.6864812245  4.9315486955  -1.5472294230
Cu  2.6932051095  3.2877100910  -6.0700948745
4
scale = 2.10000
Li  0.0000000000  0.0000000000  0.0000000000
Cu  4.8145448400  1.6839457110  -1.5849667260
Cu  0.7032246690  5.0518303710  -1.5849667260
Cu  2.7588930390  3.3678981420  -6.2181459690
4
scale = 2.15000
Li  0.0000000000  0.0000000000  0.0000000000
Cu  4.9291768600  1.7240396565  -1.6227040290
Cu  0.7199681135  5.1721120465  -1.6227040290
Cu  2.8245809685  3.4480861930  -6.3661970635
4
scale = 2.20000
Li  0.0000000000  0.0000000000  0.0000000000
Cu  5.0438088800  1.7641336020  -1.6604413320
Cu  0.7367115580  5.2923937220  -1.6604413320
Cu  2.8902688980  3.5282742440  -6.5142481580
4
scale = 2.25000
Li  0.0000000000  0.0000000000  0.0000000000
Cu  5.1584409000  1.8042275475  -1.6981786350
Cu  0.7534550025  5.4126753975  -1.6981786350
Cu  2.9559568275  3.6084622950  -6.6622992525
4
scale = 2.30000
Li  0.0000000000  0.0000000000  0.0000000000
Cu  5.2730729200  1.8443214930  -1.7359159380
Cu  0.7701984470  5.5329570730  -1.7359159380
Cu  3.0216447570  3.6886503460  -6.8103503470
4
scale = 2.35000
Li  0.0000000000  0.0000000000  0.0000000000
Cu  5.3877049400  1.8844154385  -1.7736532410
Cu  0.7869418915  5.6532387485  -1.7736532410
Cu  3.0873326865  3.7688383970  -6.9584014415
4
scale = 2.40000
Li  0.0000000000  0.0000000000  0.0000000000
Cu  5.5023369600  1.9245093840  -1.8113905440
Cu  0.8036853360  5.7735204240  -1.8113905440
Cu  3.1530206160  3.8490264480  -7.1064525360
4
scale = 2.45000
Li  0.0000000000  0.0000000000  0.0000000000
Cu  5.6169689800  1.9646033295  -1.8491278470
Cu  0.8204287805  5.8938020995  -1.8491278470
Cu  3.2187085455  3.9292144990  -7.2545036305
