4
scale = 0.75000
Li  0.0000000000  0.0000000000  0.0000000000
Dy  -0.0000000000  1.8299737500  1.8299737500
Dy  1.8299737500  0.0000000000  1.8299737500
Dy  1.8299737500  1.8299737500  0.0000000000
4
scale = 0.80000
Li  0.0000000000  0.0000000000  0.0000000000
Dy  -0.0000000000  1.9519720000  1.9519720000
Dy  1.9519720000  0.0000000000  1.9519720000
Dy  1.9519720000  1.9519720000  0.0000000000
4
scale = 0.85000
Li  0.0000000000  0.0000000000  0.0000000000
Dy  -0.0000000000  2.0739702500  2.0739702500
Dy  2.0739702500  0.0000000000  2.0739702500
Dy  2.0739702500  2.0739702500  0.0000000000
4
scale = 0.90000
Li  0.0000000000  0.0000000000  0.0000000000
Dy  -0.0000000000  2.1959685000  2.1959685000
Dy  2.1959685000  0.0000000000  2.1959685000
Dy  2.1959685000  2.1959685000  0.0000000000
4
scale = 0.95000
Li  0.0000000000  0.0000000000  0.0000000000
Dy  -0.0000000000  2.3179667500  2.3179667500
Dy  2.3179667500  0.0000000000  2.3179667500
Dy  2.3179667500  2.3179667500  0.0000000000
4
scale = 1.00000
Li  0.0000000000  0.0000000000  0.0000000000
Dy  -0.0000000000  2.4399650000  2.4399650000
Dy  2.4399650000  0.0000000000  2.4399650000
Dy  2.4399650000  2.4399650000  0.0000000000
4
scale = 1.05000
Li  0.0000000000  0.0000000000  0.0000000000
Dy  -0.0000000000  2.5619632500  2.5619632500
Dy  2.5619632500  0.0000000000  2.5619632500
Dy  2.5619632500  2.5619632500  0.0000000000
4
scale = 1.10000
Li  0.0000000000  0.0000000000  0.0000000000
Dy  -0.0000000000  2.6839615000  2.6839615000
Dy  2.6839615000  0.0000000000  2.6839615000
Dy  2.6839615000  2.6839615000  0.0000000000
4
scale = 1.15000
Li  0.0000000000  0.0000000000  0.0000000000
Dy  -0.0000000000  2.8059597500  2.8059597500
Dy  2.8059597500  0.0000000000  2.8059597500
Dy  2.8059597500  2.8059597500  0.0000000000
4
scale = 1.20000
Li  0.0000000000  0.0000000000  0.0000000000
Dy  -0.0000000000  2.9279580000  2.9279580000
Dy  2.9279580000  0.0000000000  2.9279580000
Dy  2.9279580000  2.9279580000  0.0000000000
4
scale = 1.25000
Li  0.0000000000  0.0000000000  0.0000000000
Dy  -0.0000000000  3.0499562500  3.0499562500
Dy  3.0499562500  0.0000000000  3.0499562500
Dy  3.0499562500  3.0499562500  0.0000000000
4
scale = 1.30000
Li  0.0000000000  0.0000000000  0.0000000000
Dy  -0.0000000000  3.1719545000  3.1719545000
Dy  3.1719545000  0.0000000000  3.1719545000
Dy  3.1719545000  3.1719545000  0.0000000000
4
scale = 1.35000
Li  0.0000000000  0.0000000000  0.0000000000
Dy  -0.0000000000  3.2939527500  3.2939527500
Dy  3.2939527500  0.0000000000  3.2939527500
Dy  3.2939527500  3.2939527500  0.0000000000
4
scale = 1.40000
Li  0.0000000000  0.0000000000  0.0000000000
Dy  -0.0000000000  3.4159510000  3.4159510000
Dy  3.4159510000  0.0000000000  3.4159510000
Dy  3.4159510000  3.4159510000  0.0000000000
4
scale = 1.45000
Li  0.0000000000  0.0000000000  0.0000000000
Dy  -0.0000000000  3.5379492500  3.5379492500
Dy  3.5379492500  0.0000000000  3.5379492500
Dy  3.5379492500  3.5379492500  0.0000000000
4
scale = 1.50000
Li  0.0000000000  0.0000000000  0.0000000000
Dy  -0.0000000000  3.6599475000  3.6599475000
Dy  3.6599475000  0.0000000000  3.6599475000
Dy  3.6599475000  3.6599475000  0.0000000000
4
scale = 1.55000
Li  0.0000000000  0.0000000000  0.0000000000
Dy  -0.0000000000  3.7819457500  3.7819457500
Dy  3.7819457500  0.0000000000  3.7819457500
Dy  3.7819457500  3.7819457500  0.0000000000
4
scale = 1.60000
Li  0.0000000000  0.0000000000  0.0000000000
Dy  -0.0000000000  3.9039440000  3.9039440000
Dy  3.9039440000  0.0000000000  3.9039440000
Dy  3.9039440000  3.9039440000  0.0000000000
4
scale = 1.65000
Li  0.0000000000  0.0000000000  0.0000000000
Dy  -0.0000000000  4.0259422500  4.0259422500
Dy  4.0259422500  0.0000000000  4.0259422500
Dy  4.0259422500  4.0259422500  0.0000000000
4
scale = 1.70000
Li  0.0000000000  0.0000000000  0.0000000000
Dy  -0.0000000000  4.1479405000  4.1479405000
Dy  4.1479405000  0.0000000000  4.1479405000
Dy  4.1479405000  4.1479405000  0.0000000000
4
scale = 1.75000
Li  0.0000000000  0.0000000000  0.0000000000
Dy  -0.0000000000  4.2699387500  4.2699387500
Dy  4.2699387500  0.0000000000  4.2699387500
Dy  4.2699387500  4.2699387500  0.0000000000
4
scale = 1.80000
Li  0.0000000000  0.0000000000  0.0000000000
Dy  -0.0000000000  4.3919370000  4.3919370000
Dy  4.3919370000  0.0000000000  4.3919370000
Dy  4.3919370000  4.3919370000  0.0000000000
4
scale = 1.85000
Li  0.0000000000  0.0000000000  0.0000000000
Dy  -0.0000000000  4.5139352500  4.5139352500
Dy  4.5139352500  0.0000000000  4.5139352500
Dy  4.5139352500  4.5139352500  0.0000000000
4
scale = 1.90000
Li  0.0000000000  0.0000000000  0.0000000000
Dy  -0.0000000000  4.6359335000  4.6359335000
Dy  4.6359335000  0.0000000000  4.6359335000
Dy  4.6359335000  4.6359335000  0.0000000000
4
scale = 1.95000
Li  0.0000000000  0.0000000000  0.0000000000
Dy  -0.0000000000  4.7579317500  4.7579317500
Dy  4.7579317500  0.0000000000  4.7579317500
Dy  4.7579317500  4.7579317500  0.0000000000
4
scale = 2.00000
Li  0.0000000000  0.0000000000  0.0000000000
Dy  -0.0000000000  4.8799300000  4.8799300000
Dy  4.8799300000  0.0000000000  4.8799300000
Dy  4.8799300000  4.8799300000  0.0000000000
4
scale = 2.05000
Li  0.0000000000  0.0000000000  0.0000000000
Dy  -0.0000000000  5.0019282500  5.0019282500
Dy  5.0019282500  0.0000000000  5.0019282500
Dy  5.0019282500  5.0019282500  0.0000000000
4
scale = 2.10000
Li  0.0000000000  0.0000000000  0.0000000000
Dy  -0.0000000000  5.1239265000  5.1239265000
Dy  5.1239265000  0.0000000000  5.1239265000
Dy  5.1239265000  5.1239265000  0.0000000000
4
scale = 2.15000
Li  0.0000000000  0.0000000000  0.0000000000
Dy  -0.0000000000  5.2459247500  5.2459247500
Dy  5.2459247500  0.0000000000  5.2459247500
Dy  5.2459247500  5.2459247500  0.0000000000
4
scale = 2.20000
Li  0.0000000000  0.0000000000  0.0000000000
Dy  -0.0000000000  5.3679230000  5.3679230000
Dy  5.3679230000  0.0000000000  5.3679230000
Dy  5.3679230000  5.3679230000  0.0000000000
4
scale = 2.25000
Li  0.0000000000  0.0000000000  0.0000000000
Dy  -0.0000000000  5.4899212500  5.4899212500
Dy  5.4899212500  0.0000000000  5.4899212500
Dy  5.4899212500  5.4899212500  0.0000000000
4
scale = 2.30000
Li  0.0000000000  0.0000000000  0.0000000000
Dy  -0.0000000000  5.6119195000  5.6119195000
Dy  5.6119195000  0.0000000000  5.6119195000
Dy  5.6119195000  5.6119195000  0.0000000000
4
scale = 2.35000
Li  0.0000000000  0.0000000000  0.0000000000
Dy  -0.0000000000  5.7339177500  5.7339177500
Dy  5.7339177500  0.0000000000  5.7339177500
Dy  5.7339177500  5.7339177500  0.0000000000
4
scale = 2.40000
Li  0.0000000000  0.0000000000  0.0000000000
Dy  -0.0000000000  5.8559160000  5.8559160000
Dy  5.8559160000  0.0000000000  5.8559160000
Dy  5.8559160000  5.8559160000  0.0000000000
4
scale = 2.45000
Li  0.0000000000  0.0000000000  0.0000000000
Dy  -0.0000000000  5.9779142500  5.9779142500
Dy  5.9779142500  0.0000000000  5.9779142500
Dy  5.9779142500  5.9779142500  0.0000000000
