8
scale = 0.75000
Li  2.6251388325  1.5156246075  1.0341303750
Li  -0.0000003225  3.0312492225  3.1023911250
Dy  3.9194348100  0.7683625650  3.1023911250
Dy  1.3308482550  0.7683625650  3.1023911250
Dy  2.6251412925  3.0101441475  3.1023911250
Dy  -1.2942963075  3.7785112575  1.0341303750
Dy  1.2942902475  3.7785112575  1.0341303750
Dy  -0.0000027900  1.5367296825  1.0341303750
8
scale = 0.80000
Li  2.8001480880  1.6166662480  1.1030724000
Li  -0.0000003440  3.2333325040  3.3092172000
Dy  4.1807304640  0.8195867360  3.3092172000
Dy  1.4195714720  0.8195867360  3.3092172000
Dy  2.8001507120  3.2108204240  3.3092172000
Dy  -1.3805827280  4.0304120080  1.1030724000
Dy  1.3805762640  4.0304120080  1.1030724000
Dy  -0.0000029760  1.6391783280  1.1030724000
8
scale = 0.85000
Li  2.9751573435  1.7177078885  1.1720144250
Li  -0.0000003655  3.4354157855  3.5160432750
Dy  4.4420261180  0.8708109070  3.5160432750
Dy  1.5082946890  0.8708109070  3.5160432750
Dy  2.9751601315  3.4114967005  3.5160432750
Dy  -1.4668691485  4.2823127585  1.1720144250
Dy  1.4668622805  4.2823127585  1.1720144250
Dy  -0.0000031620  1.7416269735  1.1720144250
8
scale = 0.90000
Li  3.1501665990  1.8187495290  1.2409564500
Li  -0.0000003870  3.6374990670  3.7228693500
Dy  4.7033217720  0.9220350780  3.7228693500
Dy  1.5970179060  0.9220350780  3.7228693500
Dy  3.1501695510  3.6121729770  3.7228693500
Dy  -1.5531555690  4.5342135090  1.2409564500
Dy  1.5531482970  4.5342135090  1.2409564500
Dy  -0.0000033480  1.8440756190  1.2409564500
8
scale = 0.95000
Li  3.3251758545  1.9197911695  1.3098984750
Li  -0.0000004085  3.8395823485  3.9296954250
Dy  4.9646174260  0.9732592490  3.9296954250
Dy  1.6857411230  0.9732592490  3.9296954250
Dy  3.3251789705  3.8128492535  3.9296954250
Dy  -1.6394419895  4.7861142595  1.3098984750
Dy  1.6394343135  4.7861142595  1.3098984750
Dy  -0.0000035340  1.9465242645  1.3098984750
8
scale = 1.00000
Li  3.5001851100  2.0208328100  1.3788405000
Li  -0.0000004300  4.0416656300  4.1365215000
Dy  5.2259130800  1.0244834200  4.1365215000
Dy  1.7744643400  1.0244834200  4.1365215000
Dy  3.5001883900  4.0135255300  4.1365215000
Dy  -1.7257284100  5.0380150100  1.3788405000
Dy  1.7257203300  5.0380150100  1.3788405000
Dy  -0.0000037200  2.0489729100  1.3788405000
8
scale = 1.05000
Li  3.6751943655  2.1218744505  1.4477825250
Li  -0.0000004515  4.2437489115  4.3433475750
Dy  5.4872087340  1.0757075910  4.3433475750
Dy  1.8631875570  1.0757075910  4.3433475750
Dy  3.6751978095  4.2142018065  4.3433475750
Dy  -1.8120148305  5.2899157605  1.4477825250
Dy  1.8120063465  5.2899157605  1.4477825250
Dy  -0.0000039060  2.1514215555  1.4477825250
8
scale = 1.10000
Li  3.8502036210  2.2229160910  1.5167245500
Li  -0.0000004730  4.4458321930  4.5501736500
Dy  5.7485043880  1.1269317620  4.5501736500
Dy  1.9519107740  1.1269317620  4.5501736500
Dy  3.8502072290  4.4148780830  4.5501736500
Dy  -1.8983012510  5.5418165110  1.5167245500
Dy  1.8982923630  5.5418165110  1.5167245500
Dy  -0.0000040920  2.2538702010  1.5167245500
8
scale = 1.15000
Li  4.0252128765  2.3239577315  1.5856665750
Li  -0.0000004945  4.6479154745  4.7569997250
Dy  6.0098000420  1.1781559330  4.7569997250
Dy  2.0406339910  1.1781559330  4.7569997250
Dy  4.0252166485  4.6155543595  4.7569997250
Dy  -1.9845876715  5.7937172615  1.5856665750
Dy  1.9845783795  5.7937172615  1.5856665750
Dy  -0.0000042780  2.3563188465  1.5856665750
8
scale = 1.20000
Li  4.2002221320  2.4249993720  1.6546086000
Li  -0.0000005160  4.8499987560  4.9638258000
Dy  6.2710956960  1.2293801040  4.9638258000
Dy  2.1293572080  1.2293801040  4.9638258000
Dy  4.2002260680  4.8162306360  4.9638258000
Dy  -2.0708740920  6.0456180120  1.6546086000
Dy  2.0708643960  6.0456180120  1.6546086000
Dy  -0.0000044640  2.4587674920  1.6546086000
8
scale = 1.25000
Li  4.3752313875  2.5260410125  1.7235506250
Li  -0.0000005375  5.0520820375  5.1706518750
Dy  6.5323913500  1.2806042750  5.1706518750
Dy  2.2180804250  1.2806042750  5.1706518750
Dy  4.3752354875  5.0169069125  5.1706518750
Dy  -2.1571605125  6.2975187625  1.7235506250
Dy  2.1571504125  6.2975187625  1.7235506250
Dy  -0.0000046500  2.5612161375  1.7235506250
8
scale = 1.30000
Li  4.5502406430  2.6270826530  1.7924926500
Li  -0.0000005590  5.2541653190  5.3774779500
Dy  6.7936870040  1.3318284460  5.3774779500
Dy  2.3068036420  1.3318284460  5.3774779500
Dy  4.5502449070  5.2175831890  5.3774779500
Dy  -2.2434469330  6.5494195130  1.7924926500
Dy  2.2434364290  6.5494195130  1.7924926500
Dy  -0.0000048360  2.6636647830  1.7924926500
8
scale = 1.35000
Li  4.7252498985  2.7281242935  1.8614346750
Li  -0.0000005805  5.4562486005  5.5843040250
Dy  7.0549826580  1.3830526170  5.5843040250
Dy  2.3955268590  1.3830526170  5.5843040250
Dy  4.7252543265  5.4182594655  5.5843040250
Dy  -2.3297333535  6.8013202635  1.8614346750
Dy  2.3297224455  6.8013202635  1.8614346750
Dy  -0.0000050220  2.7661134285  1.8614346750
8
scale = 1.40000
Li  4.9002591540  2.8291659340  1.9303767000
Li  -0.0000006020  5.6583318820  5.7911301000
Dy  7.3162783120  1.4342767880  5.7911301000
Dy  2.4842500760  1.4342767880  5.7911301000
Dy  4.9002637460  5.6189357420  5.7911301000
Dy  -2.4160197740  7.0532210140  1.9303767000
Dy  2.4160084620  7.0532210140  1.9303767000
Dy  -0.0000052080  2.8685620740  1.9303767000
8
scale = 1.45000
Li  5.0752684095  2.9302075745  1.9993187250
Li  -0.0000006235  5.8604151635  5.9979561750
Dy  7.5775739660  1.4855009590  5.9979561750
Dy  2.5729732930  1.4855009590  5.9979561750
Dy  5.0752731655  5.8196120185  5.9979561750
Dy  -2.5023061945  7.3051217645  1.9993187250
Dy  2.5022944785  7.3051217645  1.9993187250
Dy  -0.0000053940  2.9710107195  1.9993187250
8
scale = 1.50000
Li  5.2502776650  3.0312492150  2.0682607500
Li  -0.0000006450  6.0624984450  6.2047822500
Dy  7.8388696200  1.5367251300  6.2047822500
Dy  2.6616965100  1.5367251300  6.2047822500
Dy  5.2502825850  6.0202882950  6.2047822500
Dy  -2.5885926150  7.5570225150  2.0682607500
Dy  2.5885804950  7.5570225150  2.0682607500
Dy  -0.0000055800  3.0734593650  2.0682607500
8
scale = 1.55000
Li  5.4252869205  3.1322908555  2.1372027750
Li  -0.0000006665  6.2645817265  6.4116083250
Dy  8.1001652740  1.5879493010  6.4116083250
Dy  2.7504197270  1.5879493010  6.4116083250
Dy  5.4252920045  6.2209645715  6.4116083250
Dy  -2.6748790355  7.8089232655  2.1372027750
Dy  2.6748665115  7.8089232655  2.1372027750
Dy  -0.0000057660  3.1759080105  2.1372027750
8
scale = 1.60000
Li  5.6002961760  3.2333324960  2.2061448000
Li  -0.0000006880  6.4666650080  6.6184344000
Dy  8.3614609280  1.6391734720  6.6184344000
Dy  2.8391429440  1.6391734720  6.6184344000
Dy  5.6003014240  6.4216408480  6.6184344000
Dy  -2.7611654560  8.0608240160  2.2061448000
Dy  2.7611525280  8.0608240160  2.2061448000
Dy  -0.0000059520  3.2783566560  2.2061448000
8
scale = 1.65000
Li  5.7753054315  3.3343741365  2.2750868250
Li  -0.0000007095  6.6687482895  6.8252604750
Dy  8.6227565820  1.6903976430  6.8252604750
Dy  2.9278661610  1.6903976430  6.8252604750
Dy  5.7753108435  6.6223171245  6.8252604750
Dy  -2.8474518765  8.3127247665  2.2750868250
Dy  2.8474385445  8.3127247665  2.2750868250
Dy  -0.0000061380  3.3808053015  2.2750868250
8
scale = 1.70000
Li  5.9503146870  3.4354157770  2.3440288500
Li  -0.0000007310  6.8708315710  7.0320865500
Dy  8.8840522360  1.7416218140  7.0320865500
Dy  3.0165893780  1.7416218140  7.0320865500
Dy  5.9503202630  6.8229934010  7.0320865500
Dy  -2.9337382970  8.5646255170  2.3440288500
Dy  2.9337245610  8.5646255170  2.3440288500
Dy  -0.0000063240  3.4832539470  2.3440288500
8
scale = 1.75000
Li  6.1253239425  3.5364574175  2.4129708750
Li  -0.0000007525  7.0729148525  7.2389126250
Dy  9.1453478900  1.7928459850  7.2389126250
Dy  3.1053125950  1.7928459850  7.2389126250
Dy  6.1253296825  7.0236696775  7.2389126250
Dy  -3.0200247175  8.8165262675  2.4129708750
Dy  3.0200105775  8.8165262675  2.4129708750
Dy  -0.0000065100  3.5857025925  2.4129708750
8
scale = 1.80000
Li  6.3003331980  3.6374990580  2.4819129000
Li  -0.0000007740  7.2749981340  7.4457387000
Dy  9.4066435440  1.8440701560  7.4457387000
Dy  3.1940358120  1.8440701560  7.4457387000
Dy  6.3003391020  7.2243459540  7.4457387000
Dy  -3.1063111380  9.0684270180  2.4819129000
Dy  3.1062965940  9.0684270180  2.4819129000
Dy  -0.0000066960  3.6881512380  2.4819129000
8
scale = 1.85000
Li  6.4753424535  3.7385406985  2.5508549250
Li  -0.0000007955  7.4770814155  7.6525647750
Dy  9.6679391980  1.8952943270  7.6525647750
Dy  3.2827590290  1.8952943270  7.6525647750
Dy  6.4753485215  7.4250222305  7.6525647750
Dy  -3.1925975585  9.3203277685  2.5508549250
Dy  3.1925826105  9.3203277685  2.5508549250
Dy  -0.0000068820  3.7905998835  2.5508549250
8
scale = 1.90000
Li  6.6503517090  3.8395823390  2.6197969500
Li  -0.0000008170  7.6791646970  7.8593908500
Dy  9.9292348520  1.9465184980  7.8593908500
Dy  3.3714822460  1.9465184980  7.8593908500
Dy  6.6503579410  7.6256985070  7.8593908500
Dy  -3.2788839790  9.5722285190  2.6197969500
Dy  3.2788686270  9.5722285190  2.6197969500
Dy  -0.0000070680  3.8930485290  2.6197969500
8
scale = 1.95000
Li  6.8253609645  3.9406239795  2.6887389750
Li  -0.0000008385  7.8812479785  8.0662169250
Dy  10.1905305060  1.9977426690  8.0662169250
Dy  3.4602054630  1.9977426690  8.0662169250
Dy  6.8253673605  7.8263747835  8.0662169250
Dy  -3.3651703995  9.8241292695  2.6887389750
Dy  3.3651546435  9.8241292695  2.6887389750
Dy  -0.0000072540  3.9954971745  2.6887389750
8
scale = 2.00000
Li  7.0003702200  4.0416656200  2.7576810000
Li  -0.0000008600  8.0833312600  8.2730430000
Dy  10.4518261600  2.0489668400  8.2730430000
Dy  3.5489286800  2.0489668400  8.2730430000
Dy  7.0003767800  8.0270510600  8.2730430000
Dy  -3.4514568200  10.0760300200  2.7576810000
Dy  3.4514406600  10.0760300200  2.7576810000
Dy  -0.0000074400  4.0979458200  2.7576810000
8
scale = 2.05000
Li  7.1753794755  4.1427072605  2.8266230250
Li  -0.0000008815  8.2854145415  8.4798690750
Dy  10.7131218140  2.1001910110  8.4798690750
Dy  3.6376518970  2.1001910110  8.4798690750
Dy  7.1753861995  8.2277273365  8.4798690750
Dy  -3.5377432405  10.3279307705  2.8266230250
Dy  3.5377266765  10.3279307705  2.8266230250
Dy  -0.0000076260  4.2003944655  2.8266230250
8
scale = 2.10000
Li  7.3503887310  4.2437489010  2.8955650500
Li  -0.0000009030  8.4874978230  8.6866951500
Dy  10.9744174680  2.1514151820  8.6866951500
Dy  3.7263751140  2.1514151820  8.6866951500
Dy  7.3503956190  8.4284036130  8.6866951500
Dy  -3.6240296610  10.5798315210  2.8955650500
Dy  3.6240126930  10.5798315210  2.8955650500
Dy  -0.0000078120  4.3028431110  2.8955650500
8
scale = 2.15000
Li  7.5253979865  4.3447905415  2.9645070750
Li  -0.0000009245  8.6895811045  8.8935212250
Dy  11.2357131220  2.2026393530  8.8935212250
Dy  3.8150983310  2.2026393530  8.8935212250
Dy  7.5254050385  8.6290798895  8.8935212250
Dy  -3.7103160815  10.8317322715  2.9645070750
Dy  3.7102987095  10.8317322715  2.9645070750
Dy  -0.0000079980  4.4052917565  2.9645070750
8
scale = 2.20000
Li  7.7004072420  4.4458321820  3.0334491000
Li  -0.0000009460  8.8916643860  9.1003473000
Dy  11.4970087760  2.2538635240  9.1003473000
Dy  3.9038215480  2.2538635240  9.1003473000
Dy  7.7004144580  8.8297561660  9.1003473000
Dy  -3.7966025020  11.0836330220  3.0334491000
Dy  3.7965847260  11.0836330220  3.0334491000
Dy  -0.0000081840  4.5077404020  3.0334491000
8
scale = 2.25000
Li  7.8754164975  4.5468738225  3.1023911250
Li  -0.0000009675  9.0937476675  9.3071733750
Dy  11.7583044300  2.3050876950  9.3071733750
Dy  3.9925447650  2.3050876950  9.3071733750
Dy  7.8754238775  9.0304324425  9.3071733750
Dy  -3.8828889225  11.3355337725  3.1023911250
Dy  3.8828707425  11.3355337725  3.1023911250
Dy  -0.0000083700  4.6101890475  3.1023911250
8
scale = 2.30000
Li  8.0504257530  4.6479154630  3.1713331500
Li  -0.0000009890  9.2958309490  9.5139994500
Dy  12.0196000840  2.3563118660  9.5139994500
Dy  4.0812679820  2.3563118660  9.5139994500
Dy  8.0504332970  9.2311087190  9.5139994500
Dy  -3.9691753430  11.5874345230  3.1713331500
Dy  3.9691567590  11.5874345230  3.1713331500
Dy  -0.0000085560  4.7126376930  3.1713331500
8
scale = 2.35000
Li  8.2254350085  4.7489571035  3.2402751750
Li  -0.0000010105  9.4979142305  9.7208255250
Dy  12.2808957380  2.4075360370  9.7208255250
Dy  4.1699911990  2.4075360370  9.7208255250
Dy  8.2254427165  9.4317849955  9.7208255250
Dy  -4.0554617635  11.8393352735  3.2402751750
Dy  4.0554427755  11.8393352735  3.2402751750
Dy  -0.0000087420  4.8150863385  3.2402751750
8
scale = 2.40000
Li  8.4004442640  4.8499987440  3.3092172000
Li  -0.0000010320  9.6999975120  9.9276516000
Dy  12.5421913920  2.4587602080  9.9276516000
Dy  4.2587144160  2.4587602080  9.9276516000
Dy  8.4004521360  9.6324612720  9.9276516000
Dy  -4.1417481840  12.0912360240  3.3092172000
Dy  4.1417287920  12.0912360240  3.3092172000
Dy  -0.0000089280  4.9175349840  3.3092172000
8
scale = 2.45000
Li  8.5754535195  4.9510403845  3.3781592250
Li  -0.0000010535  9.9020807935  10.1344776750
Dy  12.8034870460  2.5099843790  10.1344776750
Dy  4.3474376330  2.5099843790  10.1344776750
Dy  8.5754615555  9.8331375485  10.1344776750
Dy  -4.2280346045  12.3431367745  3.3781592250
Dy  4.2280148085  12.3431367745  3.3781592250
Dy  -0.0000091140  5.0199836295  3.3781592250
