4
scale = 0.75000
Li  0.0000000000  0.0000000000  0.0000000000
Eu  2.5494640800  0.8878851600  -1.0631100225
Eu  0.4393707450  2.6636554800  -1.0631100225
Eu  1.4944174125  1.7757703200  -3.6159215175
4
scale = 0.80000
Li  0.0000000000  0.0000000000  0.0000000000
Eu  2.7194283520  0.9470775040  -1.1339840240
Eu  0.4686621280  2.8412325120  -1.1339840240
Eu  1.5940452400  1.8941550080  -3.8569829520
4
scale = 0.85000
Li  0.0000000000  0.0000000000  0.0000000000
Eu  2.8893926240  1.0062698480  -1.2048580255
Eu  0.4979535110  3.0188095440  -1.2048580255
Eu  1.6936730675  2.0125396960  -4.0980443865
4
scale = 0.90000
Li  0.0000000000  0.0000000000  0.0000000000
Eu  3.0593568960  1.0654621920  -1.2757320270
Eu  0.5272448940  3.1963865760  -1.2757320270
Eu  1.7933008950  2.1309243840  -4.3391058210
4
scale = 0.95000
Li  0.0000000000  0.0000000000  0.0000000000
Eu  3.2293211680  1.1246545360  -1.3466060285
Eu  0.5565362770  3.3739636080  -1.3466060285
Eu  1.8929287225  2.2493090720  -4.5801672555
4
scale = 1.00000
Li  0.0000000000  0.0000000000  0.0000000000
Eu  3.3992854400  1.1838468800  -1.4174800300
Eu  0.5858276600  3.5515406400  -1.4174800300
Eu  1.9925565500  2.3676937600  -4.8212286900
4
scale = 1.05000
Li  0.0000000000  0.0000000000  0.0000000000
Eu  3.5692497120  1.2430392240  -1.4883540315
Eu  0.6151190430  3.7291176720  -1.4883540315
Eu  2.0921843775  2.4860784480  -5.0622901245
4
scale = 1.10000
Li  0.0000000000  0.0000000000  0.0000000000
Eu  3.7392139840  1.3022315680  -1.5592280330
Eu  0.6444104260  3.9066947040  -1.5592280330
Eu  2.1918122050  2.6044631360  -5.3033515590
4
scale = 1.15000
Li  0.0000000000  0.0000000000  0.0000000000
Eu  3.9091782560  1.3614239120  -1.6301020345
Eu  0.6737018090  4.0842717360  -1.6301020345
Eu  2.2914400325  2.7228478240  -5.5444129935
4
scale = 1.20000
Li  0.0000000000  0.0000000000  0.0000000000
Eu  4.0791425280  1.4206162560  -1.7009760360
Eu  0.7029931920  4.2618487680  -1.7009760360
Eu  2.3910678600  2.8412325120  -5.7854744280
4
scale = 1.25000
Li  0.0000000000  0.0000000000  0.0000000000
Eu  4.2491068000  1.4798086000  -1.7718500375
Eu  0.7322845750  4.4394258000  -1.7718500375
Eu  2.4906956875  2.9596172000  -6.0265358625
4
scale = 1.30000
Li  0.0000000000  0.0000000000  0.0000000000
Eu  4.4190710720  1.5390009440  -1.8427240390
Eu  0.7615759580  4.6170028320  -1.8427240390
Eu  2.5903235150  3.0780018880  -6.2675972970
4
scale = 1.35000
Li  0.0000000000  0.0000000000  0.0000000000
Eu  4.5890353440  1.5981932880  -1.9135980405
Eu  0.7908673410  4.7945798640  -1.9135980405
Eu  2.6899513425  3.1963865760  -6.5086587315
4
scale = 1.40000
Li  0.0000000000  0.0000000000  0.0000000000
Eu  4.7589996160  1.6573856320  -1.9844720420
Eu  0.8201587240  4.9721568960  -1.9844720420
Eu  2.7895791700  3.3147712640  -6.7497201660
4
scale = 1.45000
Li  0.0000000000  0.0000000000  0.0000000000
Eu  4.9289638880  1.7165779760  -2.0553460435
Eu  0.8494501070  5.1497339280  -2.0553460435
Eu  2.8892069975  3.4331559520  -6.9907816005
4
scale = 1.50000
Li  0.0000000000  0.0000000000  0.0000000000
Eu  5.0989281600  1.7757703200  -2.1262200450
Eu  0.8787414900  5.3273109600  -2.1262200450
Eu  2.9888348250  3.5515406400  -7.2318430350
4
scale = 1.55000
Li  0.0000000000  0.0000000000  0.0000000000
Eu  5.2688924320  1.8349626640  -2.1970940465
Eu  0.9080328730  5.5048879920  -2.1970940465
Eu  3.0884626525  3.6699253280  -7.4729044695
4
scale = 1.60000
Li  0.0000000000  0.0000000000  0.0000000000
Eu  5.4388567040  1.8941550080  -2.2679680480
Eu  0.9373242560  5.6824650240  -2.2679680480
Eu  3.1880904800  3.7883100160  -7.7139659040
4
scale = 1.65000
Li  0.0000000000  0.0000000000  0.0000000000
Eu  5.6088209760  1.9533473520  -2.3388420495
Eu  0.9666156390  5.8600420560  -2.3388420495
Eu  3.2877183075  3.9066947040  -7.9550273385
4
scale = 1.70000
Li  0.0000000000  0.0000000000  0.0000000000
Eu  5.7787852480  2.0125396960  -2.4097160510
Eu  0.9959070220  6.0376190880  -2.4097160510
Eu  3.3873461350  4.0250793920  -8.1960887730
4
scale = 1.75000
Li  0.0000000000  0.0000000000  0.0000000000
Eu  5.9487495200  2.0717320400  -2.4805900525
Eu  1.0251984050  6.2151961200  -2.4805900525
Eu  3.4869739625  4.1434640800  -8.4371502075
4
scale = 1.80000
Li  0.0000000000  0.0000000000  0.0000000000
Eu  6.1187137920  2.1309243840  -2.5514640540
Eu  1.0544897880  6.3927731520  -2.5514640540
Eu  3.5866017900  4.2618487680  -8.6782116420
4
scale = 1.85000
Li  0.0000000000  0.0000000000  0.0000000000
Eu  6.2886780640  2.1901167280  -2.6223380555
Eu  1.0837811710  6.5703501840  -2.6223380555
Eu  3.6862296175  4.3802334560  -8.9192730765
4
scale = 1.90000
Li  0.0000000000  0.0000000000  0.0000000000
Eu  6.4586423360  2.2493090720  -2.6932120570
Eu  1.1130725540  6.7479272160  -2.6932120570
Eu  3.7858574450  4.4986181440  -9.1603345110
4
scale = 1.95000
Li  0.0000000000  0.0000000000  0.0000000000
Eu  6.6286066080  2.3085014160  -2.7640860585
Eu  1.1423639370  6.9255042480  -2.7640860585
Eu  3.8854852725  4.6170028320  -9.4013959455
4
scale = 2.00000
Li  0.0000000000  0.0000000000  0.0000000000
Eu  6.7985708800  2.3676937600  -2.8349600600
Eu  1.1716553200  7.1030812800  -2.8349600600
Eu  3.9851131000  4.7353875200  -9.6424573800
4
scale = 2.05000
Li  0.0000000000  0.0000000000  0.0000000000
Eu  6.9685351520  2.4268861040  -2.9058340615
Eu  1.2009467030  7.2806583120  -2.9058340615
Eu  4.0847409275  4.8537722080  -9.8835188145
4
scale = 2.10000
Li  0.0000000000  0.0000000000  0.0000000000
Eu  7.1384994240  2.4860784480  -2.9767080630
Eu  1.2302380860  7.4582353440  -2.9767080630
Eu  4.1843687550  4.9721568960  -10.1245802490
4
scale = 2.15000
Li  0.0000000000  0.0000000000  0.0000000000
Eu  7.3084636960  2.5452707920  -3.0475820645
Eu  1.2595294690  7.6358123760  -3.0475820645
Eu  4.2839965825  5.0905415840  -10.3656416835
4
scale = 2.20000
Li  0.0000000000  0.0000000000  0.0000000000
Eu  7.4784279680  2.6044631360  -3.1184560660
Eu  1.2888208520  7.8133894080  -3.1184560660
Eu  4.3836244100  5.2089262720  -10.6067031180
4
scale = 2.25000
Li  0.0000000000  0.0000000000  0.0000000000
Eu  7.6483922400  2.6636554800  -3.1893300675
Eu  1.3181122350  7.9909664400  -3.1893300675
Eu  4.4832522375  5.3273109600  -10.8477645525
4
scale = 2.30000
Li  0.0000000000  0.0000000000  0.0000000000
Eu  7.8183565120  2.7228478240  -3.2602040690
Eu  1.3474036180  8.1685434720  -3.2602040690
Eu  4.5828800650  5.4456956480  -11.0888259870
4
scale = 2.35000
Li  0.0000000000  0.0000000000  0.0000000000
Eu  7.9883207840  2.7820401680  -3.3310780705
Eu  1.3766950010  8.3461205040  -3.3310780705
Eu  4.6825078925  5.5640803360  -11.3298874215
4
scale = 2.40000
Li  0.0000000000  0.0000000000  0.0000000000
Eu  8.1582850560  2.8412325120  -3.4019520720
Eu  1.4059863840  8.5236975360  -3.4019520720
Eu  4.7821357200  5.6824650240  -11.5709488560
4
scale = 2.45000
Li  0.0000000000  0.0000000000  0.0000000000
Eu  8.3282493280  2.9004248560  -3.4728260735
Eu  1.4352777670  8.7012745680  -3.4728260735
Eu  4.8817635475  5.8008497120  -11.8120102905
