4
scale = 0.75000
Li  1.1478524325  0.6627129150  3.1769958900
Li  0.0000000450  1.3254258225  1.3742491800
F   1.1478524325  0.6627129150  1.7805503625
F   0.0000000450  1.3254258225  3.5832970725
4
scale = 0.80000
Li  1.2243759280  0.7068937760  3.3887956160
Li  0.0000000480  1.4137875440  1.4658657920
F   1.2243759280  0.7068937760  1.8992537200
F   0.0000000480  1.4137875440  3.8221835440
4
scale = 0.85000
Li  1.3008994235  0.7510746370  3.6005953420
Li  0.0000000510  1.5021492655  1.5574824040
F   1.3008994235  0.7510746370  2.0179570775
F   0.0000000510  1.5021492655  4.0610700155
4
scale = 0.90000
Li  1.3774229190  0.7952554980  3.8123950680
Li  0.0000000540  1.5905109870  1.6490990160
F   1.3774229190  0.7952554980  2.1366604350
F   0.0000000540  1.5905109870  4.2999564870
4
scale = 0.95000
Li  1.4539464145  0.8394363590  4.0241947940
Li  0.0000000570  1.6788727085  1.7407156280
F   1.4539464145  0.8394363590  2.2553637925
F   0.0000000570  1.6788727085  4.5388429585
4
scale = 1.00000
Li  1.5304699100  0.8836172200  4.2359945200
Li  0.0000000600  1.7672344300  1.8323322400
F   1.5304699100  0.8836172200  2.3740671500
F   0.0000000600  1.7672344300  4.7777294300
4
scale = 1.05000
Li  1.6069934055  0.9277980810  4.4477942460
Li  0.0000000630  1.8555961515  1.9239488520
F   1.6069934055  0.9277980810  2.4927705075
F   0.0000000630  1.8555961515  5.0166159015
4
scale = 1.10000
Li  1.6835169010  0.9719789420  4.6595939720
Li  0.0000000660  1.9439578730  2.0155654640
F   1.6835169010  0.9719789420  2.6114738650
F   0.0000000660  1.9439578730  5.2555023730
4
scale = 1.15000
Li  1.7600403965  1.0161598030  4.8713936980
Li  0.0000000690  2.0323195945  2.1071820760
F   1.7600403965  1.0161598030  2.7301772225
F   0.0000000690  2.0323195945  5.4943888445
4
scale = 1.20000
Li  1.8365638920  1.0603406640  5.0831934240
Li  0.0000000720  2.1206813160  2.1987986880
F   1.8365638920  1.0603406640  2.8488805800
F   0.0000000720  2.1206813160  5.7332753160
4
scale = 1.25000
Li  1.9130873875  1.1045215250  5.2949931500
Li  0.0000000750  2.2090430375  2.2904153000
F   1.9130873875  1.1045215250  2.9675839375
F   0.0000000750  2.2090430375  5.9721617875
4
scale = 1.30000
Li  1.9896108830  1.1487023860  5.5067928760
Li  0.0000000780  2.2974047590  2.3820319120
F   1.9896108830  1.1487023860  3.0862872950
F   0.0000000780  2.2974047590  6.2110482590
4
scale = 1.35000
Li  2.0661343785  1.1928832470  5.7185926020
Li  0.0000000810  2.3857664805  2.4736485240
F   2.0661343785  1.1928832470  3.2049906525
F   0.0000000810  2.3857664805  6.4499347305
4
scale = 1.40000
Li  2.1426578740  1.2370641080  5.9303923280
Li  0.0000000840  2.4741282020  2.5652651360
F   2.1426578740  1.2370641080  3.3236940100
F   0.0000000840  2.4741282020  6.6888212020
4
scale = 1.45000
Li  2.2191813695  1.2812449690  6.1421920540
Li  0.0000000870  2.5624899235  2.6568817480
F   2.2191813695  1.2812449690  3.4423973675
F   0.0000000870  2.5624899235  6.9277076735
4
scale = 1.50000
Li  2.2957048650  1.3254258300  6.3539917800
Li  0.0000000900  2.6508516450  2.7484983600
F   2.2957048650  1.3254258300  3.5611007250
F   0.0000000900  2.6508516450  7.1665941450
4
scale = 1.55000
Li  2.3722283605  1.3696066910  6.5657915060
Li  0.0000000930  2.7392133665  2.8401149720
F   2.3722283605  1.3696066910  3.6798040825
F   0.0000000930  2.7392133665  7.4054806165
4
scale = 1.60000
Li  2.4487518560  1.4137875520  6.7775912320
Li  0.0000000960  2.8275750880  2.9317315840
F   2.4487518560  1.4137875520  3.7985074400
F   0.0000000960  2.8275750880  7.6443670880
4
scale = 1.65000
Li  2.5252753515  1.4579684130  6.9893909580
Li  0.0000000990  2.9159368095  3.0233481960
F   2.5252753515  1.4579684130  3.9172107975
F   0.0000000990  2.9159368095  7.8832535595
4
scale = 1.70000
Li  2.6017988470  1.5021492740  7.2011906840
Li  0.0000001020  3.0042985310  3.1149648080
F   2.6017988470  1.5021492740  4.0359141550
F   0.0000001020  3.0042985310  8.1221400310
4
scale = 1.75000
Li  2.6783223425  1.5463301350  7.4129904100
Li  0.0000001050  3.0926602525  3.2065814200
F   2.6783223425  1.5463301350  4.1546175125
F   0.0000001050  3.0926602525  8.3610265025
4
scale = 1.80000
Li  2.7548458380  1.5905109960  7.6247901360
Li  0.0000001080  3.1810219740  3.2981980320
F   2.7548458380  1.5905109960  4.2733208700
F   0.0000001080  3.1810219740  8.5999129740
4
scale = 1.85000
Li  2.8313693335  1.6346918570  7.8365898620
Li  0.0000001110  3.2693836955  3.3898146440
F   2.8313693335  1.6346918570  4.3920242275
F   0.0000001110  3.2693836955  8.8387994455
4
scale = 1.90000
Li  2.9078928290  1.6788727180  8.0483895880
Li  0.0000001140  3.3577454170  3.4814312560
F   2.9078928290  1.6788727180  4.5107275850
F   0.0000001140  3.3577454170  9.0776859170
4
scale = 1.95000
Li  2.9844163245  1.7230535790  8.2601893140
Li  0.0000001170  3.4461071385  3.5730478680
F   2.9844163245  1.7230535790  4.6294309425
F   0.0000001170  3.4461071385  9.3165723885
4
scale = 2.00000
Li  3.0609398200  1.7672344400  8.4719890400
Li  0.0000001200  3.5344688600  3.6646644800
F   3.0609398200  1.7672344400  4.7481343000
F   0.0000001200  3.5344688600  9.5554588600
4
scale = 2.05000
Li  3.1374633155  1.8114153010  8.6837887660
Li  0.0000001230  3.6228305815  3.7562810920
F   3.1374633155  1.8114153010  4.8668376575
F   0.0000001230  3.6228305815  9.7943453315
4
scale = 2.10000
Li  3.2139868110  1.8555961620  8.8955884920
Li  0.0000001260  3.7111923030  3.8478977040
F   3.2139868110  1.8555961620  4.9855410150
F   0.0000001260  3.7111923030  10.0332318030
4
scale = 2.15000
Li  3.2905103065  1.8997770230  9.1073882180
Li  0.0000001290  3.7995540245  3.9395143160
F   3.2905103065  1.8997770230  5.1042443725
F   0.0000001290  3.7995540245  10.2721182745
4
scale = 2.20000
Li  3.3670338020  1.9439578840  9.3191879440
Li  0.0000001320  3.8879157460  4.0311309280
F   3.3670338020  1.9439578840  5.2229477300
F   0.0000001320  3.8879157460  10.5110047460
4
scale = 2.25000
Li  3.4435572975  1.9881387450  9.5309876700
Li  0.0000001350  3.9762774675  4.1227475400
F   3.4435572975  1.9881387450  5.3416510875
F   0.0000001350  3.9762774675  10.7498912175
4
scale = 2.30000
Li  3.5200807930  2.0323196060  9.7427873960
Li  0.0000001380  4.0646391890  4.2143641520
F   3.5200807930  2.0323196060  5.4603544450
F   0.0000001380  4.0646391890  10.9887776890
4
scale = 2.35000
Li  3.5966042885  2.0765004670  9.9545871220
Li  0.0000001410  4.1530009105  4.3059807640
F   3.5966042885  2.0765004670  5.5790578025
F   0.0000001410  4.1530009105  11.2276641605
4
scale = 2.40000
Li  3.6731277840  2.1206813280  10.1663868480
Li  0.0000001440  4.2413626320  4.3975973760
F   3.6731277840  2.1206813280  5.6977611600
F   0.0000001440  4.2413626320  11.4665506320
4
scale = 2.45000
Li  3.7496512795  2.1648621890  10.3781865740
Li  0.0000001470  4.3297243535  4.4892139880
F   3.7496512795  2.1648621890  5.8164645175
F   0.0000001470  4.3297243535  11.7054371035
