2
scale = 0.75000
Li  0.0000000000  0.0000000000  0.0000000000
F   0.9598248750  0.9598248750  0.9598248750
2
scale = 0.80000
Li  0.0000000000  0.0000000000  0.0000000000
F   1.0238132000  1.0238132000  1.0238132000
2
scale = 0.85000
Li  0.0000000000  0.0000000000  0.0000000000
F   1.0878015250  1.0878015250  1.0878015250
2
scale = 0.90000
Li  0.0000000000  0.0000000000  0.0000000000
F   1.1517898500  1.1517898500  1.1517898500
2
scale = 0.95000
Li  0.0000000000  0.0000000000  0.0000000000
F   1.2157781750  1.2157781750  1.2157781750
2
scale = 1.00000
Li  0.0000000000  0.0000000000  0.0000000000
F   1.2797665000  1.2797665000  1.2797665000
2
scale = 1.05000
Li  0.0000000000  0.0000000000  0.0000000000
F   1.3437548250  1.3437548250  1.3437548250
2
scale = 1.10000
Li  0.0000000000  0.0000000000  0.0000000000
F   1.4077431500  1.4077431500  1.4077431500
2
scale = 1.15000
Li  0.0000000000  0.0000000000  0.0000000000
F   1.4717314750  1.4717314750  1.4717314750
2
scale = 1.20000
Li  0.0000000000  0.0000000000  0.0000000000
F   1.5357198000  1.5357198000  1.5357198000
2
scale = 1.25000
Li  0.0000000000  0.0000000000  0.0000000000
F   1.5997081250  1.5997081250  1.5997081250
2
scale = 1.30000
Li  0.0000000000  0.0000000000  0.0000000000
F   1.6636964500  1.6636964500  1.6636964500
2
scale = 1.35000
Li  0.0000000000  0.0000000000  0.0000000000
F   1.7276847750  1.7276847750  1.7276847750
2
scale = 1.40000
Li  0.0000000000  0.0000000000  0.0000000000
F   1.7916731000  1.7916731000  1.7916731000
2
scale = 1.45000
Li  0.0000000000  0.0000000000  0.0000000000
F   1.8556614250  1.8556614250  1.8556614250
2
scale = 1.50000
Li  0.0000000000  0.0000000000  0.0000000000
F   1.9196497500  1.9196497500  1.9196497500
2
scale = 1.55000
Li  0.0000000000  0.0000000000  0.0000000000
F   1.9836380750  1.9836380750  1.9836380750
2
scale = 1.60000
Li  0.0000000000  0.0000000000  0.0000000000
F   2.0476264000  2.0476264000  2.0476264000
2
scale = 1.65000
Li  0.0000000000  0.0000000000  0.0000000000
F   2.1116147250  2.1116147250  2.1116147250
2
scale = 1.70000
Li  0.0000000000  0.0000000000  0.0000000000
F   2.1756030500  2.1756030500  2.1756030500
2
scale = 1.75000
Li  0.0000000000  0.0000000000  0.0000000000
F   2.2395913750  2.2395913750  2.2395913750
2
scale = 1.80000
Li  0.0000000000  0.0000000000  0.0000000000
F   2.3035797000  2.3035797000  2.3035797000
2
scale = 1.85000
Li  0.0000000000  0.0000000000  0.0000000000
F   2.3675680250  2.3675680250  2.3675680250
2
scale = 1.90000
Li  0.0000000000  0.0000000000  0.0000000000
F   2.4315563500  2.4315563500  2.4315563500
2
scale = 1.95000
Li  0.0000000000  0.0000000000  0.0000000000
F   2.4955446750  2.4955446750  2.4955446750
2
scale = 2.00000
Li  0.0000000000  0.0000000000  0.0000000000
F   2.5595330000  2.5595330000  2.5595330000
2
scale = 2.05000
Li  0.0000000000  0.0000000000  0.0000000000
F   2.6235213250  2.6235213250  2.6235213250
2
scale = 2.10000
Li  0.0000000000  0.0000000000  0.0000000000
F   2.6875096500  2.6875096500  2.6875096500
2
scale = 2.15000
Li  0.0000000000  0.0000000000  0.0000000000
F   2.7514979750  2.7514979750  2.7514979750
2
scale = 2.20000
Li  0.0000000000  0.0000000000  0.0000000000
F   2.8154863000  2.8154863000  2.8154863000
2
scale = 2.25000
Li  0.0000000000  0.0000000000  0.0000000000
F   2.8794746250  2.8794746250  2.8794746250
2
scale = 2.30000
Li  0.0000000000  0.0000000000  0.0000000000
F   2.9434629500  2.9434629500  2.9434629500
2
scale = 2.35000
Li  0.0000000000  0.0000000000  0.0000000000
F   3.0074512750  3.0074512750  3.0074512750
2
scale = 2.40000
Li  0.0000000000  0.0000000000  0.0000000000
F   3.0714396000  3.0714396000  3.0714396000
2
scale = 2.45000
Li  0.0000000000  0.0000000000  0.0000000000
F   3.1354279250  3.1354279250  3.1354279250
