8
scale = 0.75000
Li  2.6423977275  1.5255890400  1.0460148750
Li  0.0000000900  3.0511780800  3.1380446250
Gd  3.9384964125  0.7772860875  3.1380446250
Gd  1.3463042850  0.7772860875  3.1380446250
Gd  2.6424004125  3.0221903625  3.1380446250
Gd  -1.2960985950  3.7994810250  1.0460148750
Gd  1.2960935325  3.7994810250  1.0460148750
Gd  -0.0000025950  1.5545767575  1.0460148750
8
scale = 0.80000
Li  2.8185575760  1.6272949760  1.1157492000
Li  0.0000000960  3.2545899520  3.3472476000
Gd  4.2010628400  0.8291051600  3.3472476000
Gd  1.4360579040  0.8291051600  3.3472476000
Gd  2.8185604400  3.2236697200  3.3472476000
Gd  -1.3825051680  4.0527797600  1.1157492000
Gd  1.3824997680  4.0527797600  1.1157492000
Gd  -0.0000027680  1.6582152080  1.1157492000
8
scale = 0.85000
Li  2.9947174245  1.7290009120  1.1854835250
Li  0.0000001020  3.4580018240  3.5564505750
Gd  4.4636292675  0.8809242325  3.5564505750
Gd  1.5258115230  0.8809242325  3.5564505750
Gd  2.9947204675  3.4251490775  3.5564505750
Gd  -1.4689117410  4.3060784950  1.1854835250
Gd  1.4689060035  4.3060784950  1.1854835250
Gd  -0.0000029410  1.7618536585  1.1854835250
8
scale = 0.90000
Li  3.1708772730  1.8307068480  1.2552178500
Li  0.0000001080  3.6614136960  3.7656535500
Gd  4.7261956950  0.9327433050  3.7656535500
Gd  1.6155651420  0.9327433050  3.7656535500
Gd  3.1708804950  3.6266284350  3.7656535500
Gd  -1.5553183140  4.5593772300  1.2552178500
Gd  1.5553122390  4.5593772300  1.2552178500
Gd  -0.0000031140  1.8654921090  1.2552178500
8
scale = 0.95000
Li  3.3470371215  1.9324127840  1.3249521750
Li  0.0000001140  3.8648255680  3.9748565250
Gd  4.9887621225  0.9845623775  3.9748565250
Gd  1.7053187610  0.9845623775  3.9748565250
Gd  3.3470405225  3.8281077925  3.9748565250
Gd  -1.6417248870  4.8126759650  1.3249521750
Gd  1.6417184745  4.8126759650  1.3249521750
Gd  -0.0000032870  1.9691305595  1.3249521750
8
scale = 1.00000
Li  3.5231969700  2.0341187200  1.3946865000
Li  0.0000001200  4.0682374400  4.1840595000
Gd  5.2513285500  1.0363814500  4.1840595000
Gd  1.7950723800  1.0363814500  4.1840595000
Gd  3.5232005500  4.0295871500  4.1840595000
Gd  -1.7281314600  5.0659747000  1.3946865000
Gd  1.7281247100  5.0659747000  1.3946865000
Gd  -0.0000034600  2.0727690100  1.3946865000
8
scale = 1.05000
Li  3.6993568185  2.1358246560  1.4644208250
Li  0.0000001260  4.2716493120  4.3932624750
Gd  5.5138949775  1.0882005225  4.3932624750
Gd  1.8848259990  1.0882005225  4.3932624750
Gd  3.6993605775  4.2310665075  4.3932624750
Gd  -1.8145380330  5.3192734350  1.4644208250
Gd  1.8145309455  5.3192734350  1.4644208250
Gd  -0.0000036330  2.1764074605  1.4644208250
8
scale = 1.10000
Li  3.8755166670  2.2375305920  1.5341551500
Li  0.0000001320  4.4750611840  4.6024654500
Gd  5.7764614050  1.1400195950  4.6024654500
Gd  1.9745796180  1.1400195950  4.6024654500
Gd  3.8755206050  4.4325458650  4.6024654500
Gd  -1.9009446060  5.5725721700  1.5341551500
Gd  1.9009371810  5.5725721700  1.5341551500
Gd  -0.0000038060  2.2800459110  1.5341551500
8
scale = 1.15000
Li  4.0516765155  2.3392365280  1.6038894750
Li  0.0000001380  4.6784730560  4.8116684250
Gd  6.0390278325  1.1918386675  4.8116684250
Gd  2.0643332370  1.1918386675  4.8116684250
Gd  4.0516806325  4.6340252225  4.8116684250
Gd  -1.9873511790  5.8258709050  1.6038894750
Gd  1.9873434165  5.8258709050  1.6038894750
Gd  -0.0000039790  2.3836843615  1.6038894750
8
scale = 1.20000
Li  4.2278363640  2.4409424640  1.6736238000
Li  0.0000001440  4.8818849280  5.0208714000
Gd  6.3015942600  1.2436577400  5.0208714000
Gd  2.1540868560  1.2436577400  5.0208714000
Gd  4.2278406600  4.8355045800  5.0208714000
Gd  -2.0737577520  6.0791696400  1.6736238000
Gd  2.0737496520  6.0791696400  1.6736238000
Gd  -0.0000041520  2.4873228120  1.6736238000
8
scale = 1.25000
Li  4.4039962125  2.5426484000  1.7433581250
Li  0.0000001500  5.0852968000  5.2300743750
Gd  6.5641606875  1.2954768125  5.2300743750
Gd  2.2438404750  1.2954768125  5.2300743750
Gd  4.4040006875  5.0369839375  5.2300743750
Gd  -2.1601643250  6.3324683750  1.7433581250
Gd  2.1601558875  6.3324683750  1.7433581250
Gd  -0.0000043250  2.5909612625  1.7433581250
8
scale = 1.30000
Li  4.5801560610  2.6443543360  1.8130924500
Li  0.0000001560  5.2887086720  5.4392773500
Gd  6.8267271150  1.3472958850  5.4392773500
Gd  2.3335940940  1.3472958850  5.4392773500
Gd  4.5801607150  5.2384632950  5.4392773500
Gd  -2.2465708980  6.5857671100  1.8130924500
Gd  2.2465621230  6.5857671100  1.8130924500
Gd  -0.0000044980  2.6945997130  1.8130924500
8
scale = 1.35000
Li  4.7563159095  2.7460602720  1.8828267750
Li  0.0000001620  5.4921205440  5.6484803250
Gd  7.0892935425  1.3991149575  5.6484803250
Gd  2.4233477130  1.3991149575  5.6484803250
Gd  4.7563207425  5.4399426525  5.6484803250
Gd  -2.3329774710  6.8390658450  1.8828267750
Gd  2.3329683585  6.8390658450  1.8828267750
Gd  -0.0000046710  2.7982381635  1.8828267750
8
scale = 1.40000
Li  4.9324757580  2.8477662080  1.9525611000
Li  0.0000001680  5.6955324160  5.8576833000
Gd  7.3518599700  1.4509340300  5.8576833000
Gd  2.5131013320  1.4509340300  5.8576833000
Gd  4.9324807700  5.6414220100  5.8576833000
Gd  -2.4193840440  7.0923645800  1.9525611000
Gd  2.4193745940  7.0923645800  1.9525611000
Gd  -0.0000048440  2.9018766140  1.9525611000
8
scale = 1.45000
Li  5.1086356065  2.9494721440  2.0222954250
Li  0.0000001740  5.8989442880  6.0668862750
Gd  7.6144263975  1.5027531025  6.0668862750
Gd  2.6028549510  1.5027531025  6.0668862750
Gd  5.1086407975  5.8429013675  6.0668862750
Gd  -2.5057906170  7.3456633150  2.0222954250
Gd  2.5057808295  7.3456633150  2.0222954250
Gd  -0.0000050170  3.0055150645  2.0222954250
8
scale = 1.50000
Li  5.2847954550  3.0511780800  2.0920297500
Li  0.0000001800  6.1023561600  6.2760892500
Gd  7.8769928250  1.5545721750  6.2760892500
Gd  2.6926085700  1.5545721750  6.2760892500
Gd  5.2848008250  6.0443807250  6.2760892500
Gd  -2.5921971900  7.5989620500  2.0920297500
Gd  2.5921870650  7.5989620500  2.0920297500
Gd  -0.0000051900  3.1091535150  2.0920297500
8
scale = 1.55000
Li  5.4609553035  3.1528840160  2.1617640750
Li  0.0000001860  6.3057680320  6.4852922250
Gd  8.1395592525  1.6063912475  6.4852922250
Gd  2.7823621890  1.6063912475  6.4852922250
Gd  5.4609608525  6.2458600825  6.4852922250
Gd  -2.6786037630  7.8522607850  2.1617640750
Gd  2.6785933005  7.8522607850  2.1617640750
Gd  -0.0000053630  3.2127919655  2.1617640750
8
scale = 1.60000
Li  5.6371151520  3.2545899520  2.2314984000
Li  0.0000001920  6.5091799040  6.6944952000
Gd  8.4021256800  1.6582103200  6.6944952000
Gd  2.8721158080  1.6582103200  6.6944952000
Gd  5.6371208800  6.4473394400  6.6944952000
Gd  -2.7650103360  8.1055595200  2.2314984000
Gd  2.7649995360  8.1055595200  2.2314984000
Gd  -0.0000055360  3.3164304160  2.2314984000
8
scale = 1.65000
Li  5.8132750005  3.3562958880  2.3012327250
Li  0.0000001980  6.7125917760  6.9036981750
Gd  8.6646921075  1.7100293925  6.9036981750
Gd  2.9618694270  1.7100293925  6.9036981750
Gd  5.8132809075  6.6488187975  6.9036981750
Gd  -2.8514169090  8.3588582550  2.3012327250
Gd  2.8514057715  8.3588582550  2.3012327250
Gd  -0.0000057090  3.4200688665  2.3012327250
8
scale = 1.70000
Li  5.9894348490  3.4580018240  2.3709670500
Li  0.0000002040  6.9160036480  7.1129011500
Gd  8.9272585350  1.7618484650  7.1129011500
Gd  3.0516230460  1.7618484650  7.1129011500
Gd  5.9894409350  6.8502981550  7.1129011500
Gd  -2.9378234820  8.6121569900  2.3709670500
Gd  2.9378120070  8.6121569900  2.3709670500
Gd  -0.0000058820  3.5237073170  2.3709670500
8
scale = 1.75000
Li  6.1655946975  3.5597077600  2.4407013750
Li  0.0000002100  7.1194155200  7.3221041250
Gd  9.1898249625  1.8136675375  7.3221041250
Gd  3.1413766650  1.8136675375  7.3221041250
Gd  6.1656009625  7.0517775125  7.3221041250
Gd  -3.0242300550  8.8654557250  2.4407013750
Gd  3.0242182425  8.8654557250  2.4407013750
Gd  -0.0000060550  3.6273457675  2.4407013750
8
scale = 1.80000
Li  6.3417545460  3.6614136960  2.5104357000
Li  0.0000002160  7.3228273920  7.5313071000
Gd  9.4523913900  1.8654866100  7.5313071000
Gd  3.2311302840  1.8654866100  7.5313071000
Gd  6.3417609900  7.2532568700  7.5313071000
Gd  -3.1106366280  9.1187544600  2.5104357000
Gd  3.1106244780  9.1187544600  2.5104357000
Gd  -0.0000062280  3.7309842180  2.5104357000
8
scale = 1.85000
Li  6.5179143945  3.7631196320  2.5801700250
Li  0.0000002220  7.5262392640  7.7405100750
Gd  9.7149578175  1.9173056825  7.7405100750
Gd  3.3208839030  1.9173056825  7.7405100750
Gd  6.5179210175  7.4547362275  7.7405100750
Gd  -3.1970432010  9.3720531950  2.5801700250
Gd  3.1970307135  9.3720531950  2.5801700250
Gd  -0.0000064010  3.8346226685  2.5801700250
8
scale = 1.90000
Li  6.6940742430  3.8648255680  2.6499043500
Li  0.0000002280  7.7296511360  7.9497130500
Gd  9.9775242450  1.9691247550  7.9497130500
Gd  3.4106375220  1.9691247550  7.9497130500
Gd  6.6940810450  7.6562155850  7.9497130500
Gd  -3.2834497740  9.6253519300  2.6499043500
Gd  3.2834369490  9.6253519300  2.6499043500
Gd  -0.0000065740  3.9382611190  2.6499043500
8
scale = 1.95000
Li  6.8702340915  3.9665315040  2.7196386750
Li  0.0000002340  7.9330630080  8.1589160250
Gd  10.2400906725  2.0209438275  8.1589160250
Gd  3.5003911410  2.0209438275  8.1589160250
Gd  6.8702410725  7.8576949425  8.1589160250
Gd  -3.3698563470  9.8786506650  2.7196386750
Gd  3.3698431845  9.8786506650  2.7196386750
Gd  -0.0000067470  4.0418995695  2.7196386750
8
scale = 2.00000
Li  7.0463939400  4.0682374400  2.7893730000
Li  0.0000002400  8.1364748800  8.3681190000
Gd  10.5026571000  2.0727629000  8.3681190000
Gd  3.5901447600  2.0727629000  8.3681190000
Gd  7.0464011000  8.0591743000  8.3681190000
Gd  -3.4562629200  10.1319494000  2.7893730000
Gd  3.4562494200  10.1319494000  2.7893730000
Gd  -0.0000069200  4.1455380200  2.7893730000
8
scale = 2.05000
Li  7.2225537885  4.1699433760  2.8591073250
Li  0.0000002460  8.3398867520  8.5773219750
Gd  10.7652235275  2.1245819725  8.5773219750
Gd  3.6798983790  2.1245819725  8.5773219750
Gd  7.2225611275  8.2606536575  8.5773219750
Gd  -3.5426694930  10.3852481350  2.8591073250
Gd  3.5426556555  10.3852481350  2.8591073250
Gd  -0.0000070930  4.2491764705  2.8591073250
8
scale = 2.10000
Li  7.3987136370  4.2716493120  2.9288416500
Li  0.0000002520  8.5432986240  8.7865249500
Gd  11.0277899550  2.1764010450  8.7865249500
Gd  3.7696519980  2.1764010450  8.7865249500
Gd  7.3987211550  8.4621330150  8.7865249500
Gd  -3.6290760660  10.6385468700  2.9288416500
Gd  3.6290618910  10.6385468700  2.9288416500
Gd  -0.0000072660  4.3528149210  2.9288416500
8
scale = 2.15000
Li  7.5748734855  4.3733552480  2.9985759750
Li  0.0000002580  8.7467104960  8.9957279250
Gd  11.2903563825  2.2282201175  8.9957279250
Gd  3.8594056170  2.2282201175  8.9957279250
Gd  7.5748811825  8.6636123725  8.9957279250
Gd  -3.7154826390  10.8918456050  2.9985759750
Gd  3.7154681265  10.8918456050  2.9985759750
Gd  -0.0000074390  4.4564533715  2.9985759750
8
scale = 2.20000
Li  7.7510333340  4.4750611840  3.0683103000
Li  0.0000002640  8.9501223680  9.2049309000
Gd  11.5529228100  2.2800391900  9.2049309000
Gd  3.9491592360  2.2800391900  9.2049309000
Gd  7.7510412100  8.8650917300  9.2049309000
Gd  -3.8018892120  11.1451443400  3.0683103000
Gd  3.8018743620  11.1451443400  3.0683103000
Gd  -0.0000076120  4.5600918220  3.0683103000
8
scale = 2.25000
Li  7.9271931825  4.5767671200  3.1380446250
Li  0.0000002700  9.1535342400  9.4141338750
Gd  11.8154892375  2.3318582625  9.4141338750
Gd  4.0389128550  2.3318582625  9.4141338750
Gd  7.9272012375  9.0665710875  9.4141338750
Gd  -3.8882957850  11.3984430750  3.1380446250
Gd  3.8882805975  11.3984430750  3.1380446250
Gd  -0.0000077850  4.6637302725  3.1380446250
8
scale = 2.30000
Li  8.1033530310  4.6784730560  3.2077789500
Li  0.0000002760  9.3569461120  9.6233368500
Gd  12.0780556650  2.3836773350  9.6233368500
Gd  4.1286664740  2.3836773350  9.6233368500
Gd  8.1033612650  9.2680504450  9.6233368500
Gd  -3.9747023580  11.6517418100  3.2077789500
Gd  3.9746868330  11.6517418100  3.2077789500
Gd  -0.0000079580  4.7673687230  3.2077789500
8
scale = 2.35000
Li  8.2795128795  4.7801789920  3.2775132750
Li  0.0000002820  9.5603579840  9.8325398250
Gd  12.3406220925  2.4354964075  9.8325398250
Gd  4.2184200930  2.4354964075  9.8325398250
Gd  8.2795212925  9.4695298025  9.8325398250
Gd  -4.0611089310  11.9050405450  3.2775132750
Gd  4.0610930685  11.9050405450  3.2775132750
Gd  -0.0000081310  4.8710071735  3.2775132750
8
scale = 2.40000
Li  8.4556727280  4.8818849280  3.3472476000
Li  0.0000002880  9.7637698560  10.0417428000
Gd  12.6031885200  2.4873154800  10.0417428000
Gd  4.3081737120  2.4873154800  10.0417428000
Gd  8.4556813200  9.6710091600  10.0417428000
Gd  -4.1475155040  12.1583392800  3.3472476000
Gd  4.1474993040  12.1583392800  3.3472476000
Gd  -0.0000083040  4.9746456240  3.3472476000
8
scale = 2.45000
Li  8.6318325765  4.9835908640  3.4169819250
Li  0.0000002940  9.9671817280  10.2509457750
Gd  12.8657549475  2.5391345525  10.2509457750
Gd  4.3979273310  2.5391345525  10.2509457750
Gd  8.6318413475  9.8724885175  10.2509457750
Gd  -4.2339220770  12.4116380150  3.4169819250
Gd  4.2339055395  12.4116380150  3.4169819250
Gd  -0.0000084770  5.0782840745  3.4169819250
