12
scale = 0.75000
Li  1.1062283325  0.3722738100  1.9657126650
Li  1.7845770675  2.6059166850  5.8971379125
Li  1.3143743325  2.1215003550  3.1720392825
Li  0.5473203675  2.8660479825  7.6175644275
Li  1.5764310750  0.8566901325  4.6908113025
Li  2.3434850400  0.1121425125  0.2452861575
Ge  0.3391743675  1.1168214375  6.4112378100
Ge  2.5516310325  1.8613690575  1.4516127675
Ge  0.8415068775  1.6343387700  0.4315057800
Ge  0.0744529125  2.3788863900  4.8770309250
Ge  2.0492985300  1.3438517250  7.4313448050
Ge  2.8163524875  0.5993041050  2.9858196600
12
scale = 0.80000
Li  1.1799768880  0.3970920640  2.0967601760
Li  1.9035488720  2.7796444640  6.2902804400
Li  1.4019992880  2.2629337120  3.3835085680
Li  0.5838083920  3.0571178480  8.1254020560
Li  1.6815264800  0.9138028080  5.0035320560
Li  2.4997173760  0.1196186800  0.2616385680
Ge  0.3617859920  1.1912762000  6.8386536640
Ge  2.7217397680  1.9854603280  1.5483869520
Ge  0.8976073360  1.7432946880  0.4602728320
Ge  0.0794164400  2.5374788160  5.2021663200
Ge  2.1859184320  1.4334418400  7.9267677920
Ge  3.0041093200  0.6392577120  3.1848743040
12
scale = 0.85000
Li  1.2537254435  0.4219103180  2.2278076870
Li  2.0225206765  2.9533722430  6.6834229675
Li  1.4896242435  2.4043670690  3.5949778535
Li  0.6202964165  3.2481877135  8.6332396845
Li  1.7866218850  0.9709154835  5.3162528095
Li  2.6559497120  0.1270948475  0.2779909785
Ge  0.3843976165  1.2657309625  7.2660695180
Ge  2.8918485035  2.1095515985  1.6451611365
Ge  0.9537077945  1.8522506060  0.4890398840
Ge  0.0843799675  2.6960712420  5.5273017150
Ge  2.3225383340  1.5230319550  8.4221907790
Ge  3.1918661525  0.6792113190  3.3839289480
12
scale = 0.90000
Li  1.3274739990  0.4467285720  2.3588551980
Li  2.1414924810  3.1271000220  7.0765654950
Li  1.5772491990  2.5458004260  3.8064471390
Li  0.6567844410  3.4392575790  9.1410773130
Li  1.8917172900  1.0280281590  5.6289735630
Li  2.8121820480  0.1345710150  0.2943433890
Ge  0.4070092410  1.3401857250  7.6934853720
Ge  3.0619572390  2.2336428690  1.7419353210
Ge  1.0098082530  1.9612065240  0.5178069360
Ge  0.0893434950  2.8546636680  5.8524371100
Ge  2.4591582360  1.6126220700  8.9176137660
Ge  3.3796229850  0.7191649260  3.5829835920
12
scale = 0.95000
Li  1.4012225545  0.4715468260  2.4899027090
Li  2.2604642855  3.3008278010  7.4697080225
Li  1.6648741545  2.6872337830  4.0179164245
Li  0.6932724655  3.6303274445  9.6489149415
Li  1.9968126950  1.0851408345  5.9416943165
Li  2.9684143840  0.1420471825  0.3106957995
Ge  0.4296208655  1.4146404875  8.1209012260
Ge  3.2320659745  2.3577341395  1.8387095055
Ge  1.0659087115  2.0701624420  0.5465739880
Ge  0.0943070225  3.0132560940  6.1775725050
Ge  2.5957781380  1.7022121850  9.4130367530
Ge  3.5673798175  0.7591185330  3.7820382360
12
scale = 1.00000
Li  1.4749711100  0.4963650800  2.6209502200
Li  2.3794360900  3.4745555800  7.8628505500
Li  1.7524991100  2.8286671400  4.2293857100
Li  0.7297604900  3.8213973100  10.1567525700
Li  2.1019081000  1.1422535100  6.2544150700
Li  3.1246467200  0.1495233500  0.3270482100
Ge  0.4522324900  1.4890952500  8.5483170800
Ge  3.4021747100  2.4818254100  1.9354836900
Ge  1.1220091700  2.1791183600  0.5753410400
Ge  0.0992705500  3.1718485200  6.5027079000
Ge  2.7323980400  1.7918023000  9.9084597400
Ge  3.7551366500  0.7990721400  3.9810928800
12
scale = 1.05000
Li  1.5487196655  0.5211833340  2.7519977310
Li  2.4984078945  3.6482833590  8.2559930775
Li  1.8401240655  2.9701004970  4.4408549955
Li  0.7662485145  4.0124671755  10.6645901985
Li  2.2070035050  1.1993661855  6.5671358235
Li  3.2808790560  0.1569995175  0.3434006205
Ge  0.4748441145  1.5635500125  8.9757329340
Ge  3.5722834455  2.6059166805  2.0322578745
Ge  1.1781096285  2.2880742780  0.6041080920
Ge  0.1042340775  3.3304409460  6.8278432950
Ge  2.8690179420  1.8813924150  10.4038827270
Ge  3.9428934825  0.8390257470  4.1801475240
12
scale = 1.10000
Li  1.6224682210  0.5460015880  2.8830452420
Li  2.6173796990  3.8220111380  8.6491356050
Li  1.9277490210  3.1115338540  4.6523242810
Li  0.8027365390  4.2035370410  11.1724278270
Li  2.3120989100  1.2564788610  6.8798565770
Li  3.4371113920  0.1644756850  0.3597530310
Ge  0.4974557390  1.6380047750  9.4031487880
Ge  3.7423921810  2.7300079510  2.1290320590
Ge  1.2342100870  2.3970301960  0.6328751440
Ge  0.1091976050  3.4890333720  7.1529786900
Ge  3.0056378440  1.9709825300  10.8993057140
Ge  4.1306503150  0.8789793540  4.3792021680
12
scale = 1.15000
Li  1.6962167765  0.5708198420  3.0140927530
Li  2.7363515035  3.9957389170  9.0422781325
Li  2.0153739765  3.2529672110  4.8637935665
Li  0.8392245635  4.3946069065  11.6802654555
Li  2.4171943150  1.3135915365  7.1925773305
Li  3.5933437280  0.1719518525  0.3761054415
Ge  0.5200673635  1.7124595375  9.8305646420
Ge  3.9125009165  2.8540992215  2.2258062435
Ge  1.2903105455  2.5059861140  0.6616421960
Ge  0.1141611325  3.6476257980  7.4781140850
Ge  3.1422577460  2.0605726450  11.3947287010
Ge  4.3184071475  0.9189329610  4.5782568120
12
scale = 1.20000
Li  1.7699653320  0.5956380960  3.1451402640
Li  2.8553233080  4.1694666960  9.4354206600
Li  2.1029989320  3.3944005680  5.0752628520
Li  0.8757125880  4.5856767720  12.1881030840
Li  2.5222897200  1.3707042120  7.5052980840
Li  3.7495760640  0.1794280200  0.3924578520
Ge  0.5426789880  1.7869143000  10.2579804960
Ge  4.0826096520  2.9781904920  2.3225804280
Ge  1.3464110040  2.6149420320  0.6904092480
Ge  0.1191246600  3.8062182240  7.8032494800
Ge  3.2788776480  2.1501627600  11.8901516880
Ge  4.5061639800  0.9588865680  4.7773114560
12
scale = 1.25000
Li  1.8437138875  0.6204563500  3.2761877750
Li  2.9742951125  4.3431944750  9.8285631875
Li  2.1906238875  3.5358339250  5.2867321375
Li  0.9122006125  4.7767466375  12.6959407125
Li  2.6273851250  1.4278168875  7.8180188375
Li  3.9058084000  0.1869041875  0.4088102625
Ge  0.5652906125  1.8613690625  10.6853963500
Ge  4.2527183875  3.1022817625  2.4193546125
Ge  1.4025114625  2.7238979500  0.7191763000
Ge  0.1240881875  3.9648106500  8.1283848750
Ge  3.4154975500  2.2397528750  12.3855746750
Ge  4.6939208125  0.9988401750  4.9763661000
12
scale = 1.30000
Li  1.9174624430  0.6452746040  3.4072352860
Li  3.0932669170  4.5169222540  10.2217057150
Li  2.2782488430  3.6772672820  5.4982014230
Li  0.9486886370  4.9678165030  13.2037783410
Li  2.7324805300  1.4849295630  8.1307395910
Li  4.0620407360  0.1943803550  0.4251626730
Ge  0.5879022370  1.9358238250  11.1128122040
Ge  4.4228271230  3.2263730330  2.5161287970
Ge  1.4586119210  2.8328538680  0.7479433520
Ge  0.1290517150  4.1234030760  8.4535202700
Ge  3.5521174520  2.3293429900  12.8809976620
Ge  4.8816776450  1.0387937820  5.1754207440
12
scale = 1.35000
Li  1.9912109985  0.6700928580  3.5382827970
Li  3.2122387215  4.6906500330  10.6148482425
Li  2.3658737985  3.8187006390  5.7096707085
Li  0.9851766615  5.1588863685  13.7116159695
Li  2.8375759350  1.5420422385  8.4434603445
Li  4.2182730720  0.2018565225  0.4415150835
Ge  0.6105138615  2.0102785875  11.5402280580
Ge  4.5929358585  3.3504643035  2.6129029815
Ge  1.5147123795  2.9418097860  0.7767104040
Ge  0.1340152425  4.2819955020  8.7786556650
Ge  3.6887373540  2.4189331050  13.3764206490
Ge  5.0694344775  1.0787473890  5.3744753880
12
scale = 1.40000
Li  2.0649595540  0.6949111120  3.6693303080
Li  3.3312105260  4.8643778120  11.0079907700
Li  2.4534987540  3.9601339960  5.9211399940
Li  1.0216646860  5.3499562340  14.2194535980
Li  2.9426713400  1.5991549140  8.7561810980
Li  4.3745054080  0.2093326900  0.4578674940
Ge  0.6331254860  2.0847333500  11.9676439120
Ge  4.7630445940  3.4745555740  2.7096771660
Ge  1.5708128380  3.0507657040  0.8054774560
Ge  0.1389787700  4.4405879280  9.1037910600
Ge  3.8253572560  2.5085232200  13.8718436360
Ge  5.2571913100  1.1187009960  5.5735300320
12
scale = 1.45000
Li  2.1387081095  0.7197293660  3.8003778190
Li  3.4501823305  5.0381055910  11.4011332975
Li  2.5411237095  4.1015673530  6.1326092795
Li  1.0581527105  5.5410260995  14.7272912265
Li  3.0477667450  1.6562675895  9.0689018515
Li  4.5307377440  0.2168088575  0.4742199045
Ge  0.6557371105  2.1591881125  12.3950597660
Ge  4.9331533295  3.5986468445  2.8064513505
Ge  1.6269132965  3.1597216220  0.8342445080
Ge  0.1439422975  4.5991803540  9.4289264550
Ge  3.9619771580  2.5981133350  14.3672666230
Ge  5.4449481425  1.1586546030  5.7725846760
12
scale = 1.50000
Li  2.2124566650  0.7445476200  3.9314253300
Li  3.5691541350  5.2118333700  11.7942758250
Li  2.6287486650  4.2430007100  6.3440785650
Li  1.0946407350  5.7320959650  15.2351288550
Li  3.1528621500  1.7133802650  9.3816226050
Li  4.6869700800  0.2242850250  0.4905723150
Ge  0.6783487350  2.2336428750  12.8224756200
Ge  5.1032620650  3.7227381150  2.9032255350
Ge  1.6830137550  3.2686775400  0.8630115600
Ge  0.1489058250  4.7577727800  9.7540618500
Ge  4.0985970600  2.6877034500  14.8626896100
Ge  5.6327049750  1.1986082100  5.9716393200
12
scale = 1.55000
Li  2.2862052205  0.7693658740  4.0624728410
Li  3.6881259395  5.3855611490  12.1874183525
Li  2.7163736205  4.3844340670  6.5555478505
Li  1.1311287595  5.9231658305  15.7429664835
Li  3.2579575550  1.7704929405  9.6943433585
Li  4.8432024160  0.2317611925  0.5069247255
Ge  0.7009603595  2.3080976375  13.2498914740
Ge  5.2733708005  3.8468293855  2.9999997195
Ge  1.7391142135  3.3776334580  0.8917786120
Ge  0.1538693525  4.9163652060  10.0791972450
Ge  4.2352169620  2.7772935650  15.3581125970
Ge  5.8204618075  1.2385618170  6.1706939640
12
scale = 1.60000
Li  2.3599537760  0.7941841280  4.1935203520
Li  3.8070977440  5.5592889280  12.5805608800
Li  2.8039985760  4.5258674240  6.7670171360
Li  1.1676167840  6.1142356960  16.2508041120
Li  3.3630529600  1.8276056160  10.0070641120
Li  4.9994347520  0.2392373600  0.5232771360
Ge  0.7235719840  2.3825524000  13.6773073280
Ge  5.4434795360  3.9709206560  3.0967739040
Ge  1.7952146720  3.4865893760  0.9205456640
Ge  0.1588328800  5.0749576320  10.4043326400
Ge  4.3718368640  2.8668836800  15.8535355840
Ge  6.0082186400  1.2785154240  6.3697486080
12
scale = 1.65000
Li  2.4337023315  0.8190023820  4.3245678630
Li  3.9260695485  5.7330167070  12.9737034075
Li  2.8916235315  4.6673007810  6.9784864215
Li  1.2041048085  6.3053055615  16.7586417405
Li  3.4681483650  1.8847182915  10.3197848655
Li  5.1556670880  0.2467135275  0.5396295465
Ge  0.7461836085  2.4570071625  14.1047231820
Ge  5.6135882715  4.0950119265  3.1935480885
Ge  1.8513151305  3.5955452940  0.9493127160
Ge  0.1637964075  5.2335500580  10.7294680350
Ge  4.5084567660  2.9564737950  16.3489585710
Ge  6.1959754725  1.3184690310  6.5688032520
12
scale = 1.70000
Li  2.5074508870  0.8438206360  4.4556153740
Li  4.0450413530  5.9067444860  13.3668459350
Li  2.9792484870  4.8087341380  7.1899557070
Li  1.2405928330  6.4963754270  17.2664793690
Li  3.5732437700  1.9418309670  10.6325056190
Li  5.3118994240  0.2541896950  0.5559819570
Ge  0.7687952330  2.5314619250  14.5321390360
Ge  5.7836970070  4.2191031970  3.2903222730
Ge  1.9074155890  3.7045012120  0.9780797680
Ge  0.1687599350  5.3921424840  11.0546034300
Ge  4.6450766680  3.0460639100  16.8443815580
Ge  6.3837323050  1.3584226380  6.7678578960
12
scale = 1.75000
Li  2.5811994425  0.8686388900  4.5866628850
Li  4.1640131575  6.0804722650  13.7599884625
Li  3.0668734425  4.9501674950  7.4014249925
Li  1.2770808575  6.6874452925  17.7743169975
Li  3.6783391750  1.9989436425  10.9452263725
Li  5.4681317600  0.2616658625  0.5723343675
Ge  0.7914068575  2.6059166875  14.9595548900
Ge  5.9538057425  4.3431944675  3.3870964575
Ge  1.9635160475  3.8134571300  1.0068468200
Ge  0.1737234625  5.5507349100  11.3797388250
Ge  4.7816965700  3.1356540250  17.3398045450
Ge  6.5714891375  1.3983762450  6.9669125400
12
scale = 1.80000
Li  2.6549479980  0.8934571440  4.7177103960
Li  4.2829849620  6.2542000440  14.1531309900
Li  3.1544983980  5.0916008520  7.6128942780
Li  1.3135688820  6.8785151580  18.2821546260
Li  3.7834345800  2.0560563180  11.2579471260
Li  5.6243640960  0.2691420300  0.5886867780
Ge  0.8140184820  2.6803714500  15.3869707440
Ge  6.1239144780  4.4672857380  3.4838706420
Ge  2.0196165060  3.9224130480  1.0356138720
Ge  0.1786869900  5.7093273360  11.7048742200
Ge  4.9183164720  3.2252441400  17.8352275320
Ge  6.7592459700  1.4383298520  7.1659671840
12
scale = 1.85000
Li  2.7286965535  0.9182753980  4.8487579070
Li  4.4019567665  6.4279278230  14.5462735175
Li  3.2421233535  5.2330342090  7.8243635635
Li  1.3500569065  7.0695850235  18.7899922545
Li  3.8885299850  2.1131689935  11.5706678795
Li  5.7805964320  0.2766181975  0.6050391885
Ge  0.8366301065  2.7548262125  15.8143865980
Ge  6.2940232135  4.5913770085  3.5806448265
Ge  2.0757169645  4.0313689660  1.0643809240
Ge  0.1836505175  5.8679197620  12.0300096150
Ge  5.0549363740  3.3148342550  18.3306505190
Ge  6.9470028025  1.4782834590  7.3650218280
12
scale = 1.90000
Li  2.8024451090  0.9430936520  4.9798054180
Li  4.5209285710  6.6016556020  14.9394160450
Li  3.3297483090  5.3744675660  8.0358328490
Li  1.3865449310  7.2606548890  19.2978298830
Li  3.9936253900  2.1702816690  11.8833886330
Li  5.9368287680  0.2840943650  0.6213915990
Ge  0.8592417310  2.8292809750  16.2418024520
Ge  6.4641319490  4.7154682790  3.6774190110
Ge  2.1318174230  4.1403248840  1.0931479760
Ge  0.1886140450  6.0265121880  12.3551450100
Ge  5.1915562760  3.4044243700  18.8260735060
Ge  7.1347596350  1.5182370660  7.5640764720
12
scale = 1.95000
Li  2.8761936645  0.9679119060  5.1108529290
Li  4.6399003755  6.7753833810  15.3325585725
Li  3.4173732645  5.5159009230  8.2473021345
Li  1.4230329555  7.4517247545  19.8056675115
Li  4.0987207950  2.2273943445  12.1961093865
Li  6.0930611040  0.2915705325  0.6377440095
Ge  0.8818533555  2.9037357375  16.6692183060
Ge  6.6342406845  4.8395595495  3.7741931955
Ge  2.1879178815  4.2492808020  1.1219150280
Ge  0.1935775725  6.1851046140  12.6802804050
Ge  5.3281761780  3.4940144850  19.3214964930
Ge  7.3225164675  1.5581906730  7.7631311160
12
scale = 2.00000
Li  2.9499422200  0.9927301600  5.2419004400
Li  4.7588721800  6.9491111600  15.7257011000
Li  3.5049982200  5.6573342800  8.4587714200
Li  1.4595209800  7.6427946200  20.3135051400
Li  4.2038162000  2.2845070200  12.5088301400
Li  6.2492934400  0.2990467000  0.6540964200
Ge  0.9044649800  2.9781905000  17.0966341600
Ge  6.8043494200  4.9636508200  3.8709673800
Ge  2.2440183400  4.3582367200  1.1506820800
Ge  0.1985411000  6.3436970400  13.0054158000
Ge  5.4647960800  3.5836046000  19.8169194800
Ge  7.5102733000  1.5981442800  7.9621857600
12
scale = 2.05000
Li  3.0236907755  1.0175484140  5.3729479510
Li  4.8778439845  7.1228389390  16.1188436275
Li  3.5926231755  5.7987676370  8.6702407055
Li  1.4960090045  7.8338644855  20.8213427685
Li  4.3089116050  2.3416196955  12.8215508935
Li  6.4055257760  0.3065228675  0.6704488305
Ge  0.9270766045  3.0526452625  17.5240500140
Ge  6.9744581555  5.0877420905  3.9677415645
Ge  2.3001187985  4.4671926380  1.1794491320
Ge  0.2035046275  6.5022894660  13.3305511950
Ge  5.6014159820  3.6731947150  20.3123424670
Ge  7.6980301325  1.6380978870  8.1612404040
12
scale = 2.10000
Li  3.0974393310  1.0423666680  5.5039954620
Li  4.9968157890  7.2965667180  16.5119861550
Li  3.6802481310  5.9402009940  8.8817099910
Li  1.5324970290  8.0249343510  21.3291803970
Li  4.4140070100  2.3987323710  13.1342716470
Li  6.5617581120  0.3139990350  0.6868012410
Ge  0.9496882290  3.1271000250  17.9514658680
Ge  7.1445668910  5.2118333610  4.0645157490
Ge  2.3562192570  4.5761485560  1.2082161840
Ge  0.2084681550  6.6608818920  13.6556865900
Ge  5.7380358840  3.7627848300  20.8077654540
Ge  7.8857869650  1.6780514940  8.3602950480
12
scale = 2.15000
Li  3.1711878865  1.0671849220  5.6350429730
Li  5.1157875935  7.4702944970  16.9051286825
Li  3.7678730865  6.0816343510  9.0931792765
Li  1.5689850535  8.2160042165  21.8370180255
Li  4.5191024150  2.4558450465  13.4469924005
Li  6.7179904480  0.3214752025  0.7031536515
Ge  0.9722998535  3.2015547875  18.3788817220
Ge  7.3146756265  5.3359246315  4.1612899335
Ge  2.4123197155  4.6851044740  1.2369832360
Ge  0.2134316825  6.8194743180  13.9808219850
Ge  5.8746557860  3.8523749450  21.3031884410
Ge  8.0735437975  1.7180051010  8.5593496920
12
scale = 2.20000
Li  3.2449364420  1.0920031760  5.7660904840
Li  5.2347593980  7.6440222760  17.2982712100
Li  3.8554980420  6.2230677080  9.3046485620
Li  1.6054730780  8.4070740820  22.3448556540
Li  4.6241978200  2.5129577220  13.7597131540
Li  6.8742227840  0.3289513700  0.7195060620
Ge  0.9949114780  3.2760095500  18.8062975760
Ge  7.4847843620  5.4600159020  4.2580641180
Ge  2.4684201740  4.7940603920  1.2657502880
Ge  0.2183952100  6.9780667440  14.3059573800
Ge  6.0112756880  3.9419650600  21.7986114280
Ge  8.2613006300  1.7579587080  8.7584043360
12
scale = 2.25000
Li  3.3186849975  1.1168214300  5.8971379950
Li  5.3537312025  7.8177500550  17.6914137375
Li  3.9431229975  6.3645010650  9.5161178475
Li  1.6419611025  8.5981439475  22.8526932825
Li  4.7292932250  2.5700703975  14.0724339075
Li  7.0304551200  0.3364275375  0.7358584725
Ge  1.0175231025  3.3504643125  19.2337134300
Ge  7.6548930975  5.5841071725  4.3548383025
Ge  2.5245206325  4.9030163100  1.2945173400
Ge  0.2233587375  7.1366591700  14.6310927750
Ge  6.1478955900  4.0315551750  22.2940344150
Ge  8.4490574625  1.7979123150  8.9574589800
12
scale = 2.30000
Li  3.3924335530  1.1416396840  6.0281855060
Li  5.4727030070  7.9914778340  18.0845562650
Li  4.0307479530  6.5059344220  9.7275871330
Li  1.6784491270  8.7892138130  23.3605309110
Li  4.8343886300  2.6271830730  14.3851546610
Li  7.1866874560  0.3439037050  0.7522108830
Ge  1.0401347270  3.4249190750  19.6611292840
Ge  7.8250018330  5.7081984430  4.4516124870
Ge  2.5806210910  5.0119722280  1.3232843920
Ge  0.2283222650  7.2952515960  14.9562281700
Ge  6.2845154920  4.1211452900  22.7894574020
Ge  8.6368142950  1.8378659220  9.1565136240
12
scale = 2.35000
Li  3.4661821085  1.1664579380  6.1592330170
Li  5.5916748115  8.1652056130  18.4776987925
Li  4.1183729085  6.6473677790  9.9390564185
Li  1.7149371515  8.9802836785  23.8683685395
Li  4.9394840350  2.6842957485  14.6978754145
Li  7.3429197920  0.3513798725  0.7685632935
Ge  1.0627463515  3.4993738375  20.0885451380
Ge  7.9951105685  5.8322897135  4.5483866715
Ge  2.6367215495  5.1209281460  1.3520514440
Ge  0.2332857925  7.4538440220  15.2813635650
Ge  6.4211353940  4.2107354050  23.2848803890
Ge  8.8245711275  1.8778195290  9.3555682680
12
scale = 2.40000
Li  3.5399306640  1.1912761920  6.2902805280
Li  5.7106466160  8.3389333920  18.8708413200
Li  4.2059978640  6.7888011360  10.1505257040
Li  1.7514251760  9.1713535440  24.3762061680
Li  5.0445794400  2.7414084240  15.0105961680
Li  7.4991521280  0.3588560400  0.7849157040
Ge  1.0853579760  3.5738286000  20.5159609920
Ge  8.1652193040  5.9563809840  4.6451608560
Ge  2.6928220080  5.2298840640  1.3808184960
Ge  0.2382493200  7.6124364480  15.6064989600
Ge  6.5577552960  4.3003255200  23.7803033760
Ge  9.0123279600  1.9177731360  9.5546229120
12
scale = 2.45000
Li  3.6136792195  1.2160944460  6.4213280390
Li  5.8296184205  8.5126611710  19.2639838475
Li  4.2936228195  6.9302344930  10.3619949895
Li  1.7879132005  9.3624234095  24.8840437965
Li  5.1496748450  2.7985210995  15.3233169215
Li  7.6553844640  0.3663322075  0.8012681145
Ge  1.1079696005  3.6482833625  20.9433768460
Ge  8.3353280395  6.0804722545  4.7419350405
Ge  2.7489224665  5.3388399820  1.4095855480
Ge  0.2432128475  7.7710288740  15.9316343550
Ge  6.6943751980  4.3899156350  24.2757263630
Ge  9.2000847925  1.9577267430  9.7536775560
