4
scale = 0.75000
Li  0.0000000000  0.0000000000  0.0000000000
Ge  1.9860386100  0.6928029225  -0.7614251775
Ge  0.3233298825  2.0784087750  -0.7614251775
Ge  1.1546842425  1.3856058525  -2.7192217875
4
scale = 0.80000
Li  0.0000000000  0.0000000000  0.0000000000
Ge  2.1184411840  0.7389897840  -0.8121868560
Ge  0.3448852080  2.2169693600  -0.8121868560
Ge  1.2316631920  1.4779795760  -2.9005032400
4
scale = 0.85000
Li  0.0000000000  0.0000000000  0.0000000000
Ge  2.2508437580  0.7851766455  -0.8629485345
Ge  0.3664405335  2.3555299450  -0.8629485345
Ge  1.3086421415  1.5703532995  -3.0817846925
4
scale = 0.90000
Li  0.0000000000  0.0000000000  0.0000000000
Ge  2.3832463320  0.8313635070  -0.9137102130
Ge  0.3879958590  2.4940905300  -0.9137102130
Ge  1.3856210910  1.6627270230  -3.2630661450
4
scale = 0.95000
Li  0.0000000000  0.0000000000  0.0000000000
Ge  2.5156489060  0.8775503685  -0.9644718915
Ge  0.4095511845  2.6326511150  -0.9644718915
Ge  1.4626000405  1.7551007465  -3.4443475975
4
scale = 1.00000
Li  0.0000000000  0.0000000000  0.0000000000
Ge  2.6480514800  0.9237372300  -1.0152335700
Ge  0.4311065100  2.7712117000  -1.0152335700
Ge  1.5395789900  1.8474744700  -3.6256290500
4
scale = 1.05000
Li  0.0000000000  0.0000000000  0.0000000000
Ge  2.7804540540  0.9699240915  -1.0659952485
Ge  0.4526618355  2.9097722850  -1.0659952485
Ge  1.6165579395  1.9398481935  -3.8069105025
4
scale = 1.10000
Li  0.0000000000  0.0000000000  0.0000000000
Ge  2.9128566280  1.0161109530  -1.1167569270
Ge  0.4742171610  3.0483328700  -1.1167569270
Ge  1.6935368890  2.0322219170  -3.9881919550
4
scale = 1.15000
Li  0.0000000000  0.0000000000  0.0000000000
Ge  3.0452592020  1.0622978145  -1.1675186055
Ge  0.4957724865  3.1868934550  -1.1675186055
Ge  1.7705158385  2.1245956405  -4.1694734075
4
scale = 1.20000
Li  0.0000000000  0.0000000000  0.0000000000
Ge  3.1776617760  1.1084846760  -1.2182802840
Ge  0.5173278120  3.3254540400  -1.2182802840
Ge  1.8474947880  2.2169693640  -4.3507548600
4
scale = 1.25000
Li  0.0000000000  0.0000000000  0.0000000000
Ge  3.3100643500  1.1546715375  -1.2690419625
Ge  0.5388831375  3.4640146250  -1.2690419625
Ge  1.9244737375  2.3093430875  -4.5320363125
4
scale = 1.30000
Li  0.0000000000  0.0000000000  0.0000000000
Ge  3.4424669240  1.2008583990  -1.3198036410
Ge  0.5604384630  3.6025752100  -1.3198036410
Ge  2.0014526870  2.4017168110  -4.7133177650
4
scale = 1.35000
Li  0.0000000000  0.0000000000  0.0000000000
Ge  3.5748694980  1.2470452605  -1.3705653195
Ge  0.5819937885  3.7411357950  -1.3705653195
Ge  2.0784316365  2.4940905345  -4.8945992175
4
scale = 1.40000
Li  0.0000000000  0.0000000000  0.0000000000
Ge  3.7072720720  1.2932321220  -1.4213269980
Ge  0.6035491140  3.8796963800  -1.4213269980
Ge  2.1554105860  2.5864642580  -5.0758806700
4
scale = 1.45000
Li  0.0000000000  0.0000000000  0.0000000000
Ge  3.8396746460  1.3394189835  -1.4720886765
Ge  0.6251044395  4.0182569650  -1.4720886765
Ge  2.2323895355  2.6788379815  -5.2571621225
4
scale = 1.50000
Li  0.0000000000  0.0000000000  0.0000000000
Ge  3.9720772200  1.3856058450  -1.5228503550
Ge  0.6466597650  4.1568175500  -1.5228503550
Ge  2.3093684850  2.7712117050  -5.4384435750
4
scale = 1.55000
Li  0.0000000000  0.0000000000  0.0000000000
Ge  4.1044797940  1.4317927065  -1.5736120335
Ge  0.6682150905  4.2953781350  -1.5736120335
Ge  2.3863474345  2.8635854285  -5.6197250275
4
scale = 1.60000
Li  0.0000000000  0.0000000000  0.0000000000
Ge  4.2368823680  1.4779795680  -1.6243737120
Ge  0.6897704160  4.4339387200  -1.6243737120
Ge  2.4633263840  2.9559591520  -5.8010064800
4
scale = 1.65000
Li  0.0000000000  0.0000000000  0.0000000000
Ge  4.3692849420  1.5241664295  -1.6751353905
Ge  0.7113257415  4.5724993050  -1.6751353905
Ge  2.5403053335  3.0483328755  -5.9822879325
4
scale = 1.70000
Li  0.0000000000  0.0000000000  0.0000000000
Ge  4.5016875160  1.5703532910  -1.7258970690
Ge  0.7328810670  4.7110598900  -1.7258970690
Ge  2.6172842830  3.1407065990  -6.1635693850
4
scale = 1.75000
Li  0.0000000000  0.0000000000  0.0000000000
Ge  4.6340900900  1.6165401525  -1.7766587475
Ge  0.7544363925  4.8496204750  -1.7766587475
Ge  2.6942632325  3.2330803225  -6.3448508375
4
scale = 1.80000
Li  0.0000000000  0.0000000000  0.0000000000
Ge  4.7664926640  1.6627270140  -1.8274204260
Ge  0.7759917180  4.9881810600  -1.8274204260
Ge  2.7712421820  3.3254540460  -6.5261322900
4
scale = 1.85000
Li  0.0000000000  0.0000000000  0.0000000000
Ge  4.8988952380  1.7089138755  -1.8781821045
Ge  0.7975470435  5.1267416450  -1.8781821045
Ge  2.8482211315  3.4178277695  -6.7074137425
4
scale = 1.90000
Li  0.0000000000  0.0000000000  0.0000000000
Ge  5.0312978120  1.7551007370  -1.9289437830
Ge  0.8191023690  5.2653022300  -1.9289437830
Ge  2.9252000810  3.5102014930  -6.8886951950
4
scale = 1.95000
Li  0.0000000000  0.0000000000  0.0000000000
Ge  5.1637003860  1.8012875985  -1.9797054615
Ge  0.8406576945  5.4038628150  -1.9797054615
Ge  3.0021790305  3.6025752165  -7.0699766475
4
scale = 2.00000
Li  0.0000000000  0.0000000000  0.0000000000
Ge  5.2961029600  1.8474744600  -2.0304671400
Ge  0.8622130200  5.5424234000  -2.0304671400
Ge  3.0791579800  3.6949489400  -7.2512581000
4
scale = 2.05000
Li  0.0000000000  0.0000000000  0.0000000000
Ge  5.4285055340  1.8936613215  -2.0812288185
Ge  0.8837683455  5.6809839850  -2.0812288185
Ge  3.1561369295  3.7873226635  -7.4325395525
4
scale = 2.10000
Li  0.0000000000  0.0000000000  0.0000000000
Ge  5.5609081080  1.9398481830  -2.1319904970
Ge  0.9053236710  5.8195445700  -2.1319904970
Ge  3.2331158790  3.8796963870  -7.6138210050
4
scale = 2.15000
Li  0.0000000000  0.0000000000  0.0000000000
Ge  5.6933106820  1.9860350445  -2.1827521755
Ge  0.9268789965  5.9581051550  -2.1827521755
Ge  3.3100948285  3.9720701105  -7.7951024575
4
scale = 2.20000
Li  0.0000000000  0.0000000000  0.0000000000
Ge  5.8257132560  2.0322219060  -2.2335138540
Ge  0.9484343220  6.0966657400  -2.2335138540
Ge  3.3870737780  4.0644438340  -7.9763839100
4
scale = 2.25000
Li  0.0000000000  0.0000000000  0.0000000000
Ge  5.9581158300  2.0784087675  -2.2842755325
Ge  0.9699896475  6.2352263250  -2.2842755325
Ge  3.4640527275  4.1568175575  -8.1576653625
4
scale = 2.30000
Li  0.0000000000  0.0000000000  0.0000000000
Ge  6.0905184040  2.1245956290  -2.3350372110
Ge  0.9915449730  6.3737869100  -2.3350372110
Ge  3.5410316770  4.2491912810  -8.3389468150
4
scale = 2.35000
Li  0.0000000000  0.0000000000  0.0000000000
Ge  6.2229209780  2.1707824905  -2.3857988895
Ge  1.0131002985  6.5123474950  -2.3857988895
Ge  3.6180106265  4.3415650045  -8.5202282675
4
scale = 2.40000
Li  0.0000000000  0.0000000000  0.0000000000
Ge  6.3553235520  2.2169693520  -2.4365605680
Ge  1.0346556240  6.6509080800  -2.4365605680
Ge  3.6949895760  4.4339387280  -8.7015097200
4
scale = 2.45000
Li  0.0000000000  0.0000000000  0.0000000000
Ge  6.4877261260  2.2631562135  -2.4873222465
Ge  1.0562109495  6.7894686650  -2.4873222465
Ge  3.7719685255  4.5263124515  -8.8827911725
