2
scale = 0.75000
Li  0.0000000000  0.0000000000  0.0000000000
H   1.2300228750  0.8697577500  2.1304623750
2
scale = 0.80000
Li  0.0000000000  0.0000000000  0.0000000000
H   1.3120244000  0.9277416000  2.2724932000
2
scale = 0.85000
Li  0.0000000000  0.0000000000  0.0000000000
H   1.3940259250  0.9857254500  2.4145240250
2
scale = 0.90000
Li  0.0000000000  0.0000000000  0.0000000000
H   1.4760274500  1.0437093000  2.5565548500
2
scale = 0.95000
Li  0.0000000000  0.0000000000  0.0000000000
H   1.5580289750  1.1016931500  2.6985856750
2
scale = 1.00000
Li  0.0000000000  0.0000000000  0.0000000000
H   1.6400305000  1.1596770000  2.8406165000
2
scale = 1.05000
Li  0.0000000000  0.0000000000  0.0000000000
H   1.7220320250  1.2176608500  2.9826473250
2
scale = 1.10000
Li  0.0000000000  0.0000000000  0.0000000000
H   1.8040335500  1.2756447000  3.1246781500
2
scale = 1.15000
Li  0.0000000000  0.0000000000  0.0000000000
H   1.8860350750  1.3336285500  3.2667089750
2
scale = 1.20000
Li  0.0000000000  0.0000000000  0.0000000000
H   1.9680366000  1.3916124000  3.4087398000
2
scale = 1.25000
Li  0.0000000000  0.0000000000  0.0000000000
H   2.0500381250  1.4495962500  3.5507706250
2
scale = 1.30000
Li  0.0000000000  0.0000000000  0.0000000000
H   2.1320396500  1.5075801000  3.6928014500
2
scale = 1.35000
Li  0.0000000000  0.0000000000  0.0000000000
H   2.2140411750  1.5655639500  3.8348322750
2
scale = 1.40000
Li  0.0000000000  0.0000000000  0.0000000000
H   2.2960427000  1.6235478000  3.9768631000
2
scale = 1.45000
Li  0.0000000000  0.0000000000  0.0000000000
H   2.3780442250  1.6815316500  4.1188939250
2
scale = 1.50000
Li  0.0000000000  0.0000000000  0.0000000000
H   2.4600457500  1.7395155000  4.2609247500
2
scale = 1.55000
Li  0.0000000000  0.0000000000  0.0000000000
H   2.5420472750  1.7974993500  4.4029555750
2
scale = 1.60000
Li  0.0000000000  0.0000000000  0.0000000000
H   2.6240488000  1.8554832000  4.5449864000
2
scale = 1.65000
Li  0.0000000000  0.0000000000  0.0000000000
H   2.7060503250  1.9134670500  4.6870172250
2
scale = 1.70000
Li  0.0000000000  0.0000000000  0.0000000000
H   2.7880518500  1.9714509000  4.8290480500
2
scale = 1.75000
Li  0.0000000000  0.0000000000  0.0000000000
H   2.8700533750  2.0294347500  4.9710788750
2
scale = 1.80000
Li  0.0000000000  0.0000000000  0.0000000000
H   2.9520549000  2.0874186000  5.1131097000
2
scale = 1.85000
Li  0.0000000000  0.0000000000  0.0000000000
H   3.0340564250  2.1454024500  5.2551405250
2
scale = 1.90000
Li  0.0000000000  0.0000000000  0.0000000000
H   3.1160579500  2.2033863000  5.3971713500
2
scale = 1.95000
Li  0.0000000000  0.0000000000  0.0000000000
H   3.1980594750  2.2613701500  5.5392021750
2
scale = 2.00000
Li  0.0000000000  0.0000000000  0.0000000000
H   3.2800610000  2.3193540000  5.6812330000
2
scale = 2.05000
Li  0.0000000000  0.0000000000  0.0000000000
H   3.3620625250  2.3773378500  5.8232638250
2
scale = 2.10000
Li  0.0000000000  0.0000000000  0.0000000000
H   3.4440640500  2.4353217000  5.9652946500
2
scale = 2.15000
Li  0.0000000000  0.0000000000  0.0000000000
H   3.5260655750  2.4933055500  6.1073254750
2
scale = 2.20000
Li  0.0000000000  0.0000000000  0.0000000000
H   3.6080671000  2.5512894000  6.2493563000
2
scale = 2.25000
Li  0.0000000000  0.0000000000  0.0000000000
H   3.6900686250  2.6092732500  6.3913871250
2
scale = 2.30000
Li  0.0000000000  0.0000000000  0.0000000000
H   3.7720701500  2.6672571000  6.5334179500
2
scale = 2.35000
Li  0.0000000000  0.0000000000  0.0000000000
H   3.8540716750  2.7252409500  6.6754487750
2
scale = 2.40000
Li  0.0000000000  0.0000000000  0.0000000000
H   3.9360732000  2.7832248000  6.8174796000
2
scale = 2.45000
Li  0.0000000000  0.0000000000  0.0000000000
H   4.0180747250  2.8412086500  6.9595104250
