8
scale = 0.75000
Li  -0.0000076575  2.8260257400  0.8832117225
Li  2.4474100800  1.4130128700  2.6496351600
Hg  3.6327025650  0.7286860725  0.8832117225
Hg  2.4474063750  2.7816664575  0.8832117225
Hg  1.2621213000  0.7286860725  0.8832117225
Hg  -1.1853001425  3.5103525300  2.6496351600
Hg  -0.0000039450  1.4573721450  2.6496351600
Hg  1.1852811225  3.5103525300  2.6496351600
8
scale = 0.80000
Li  -0.0000081680  3.0144274560  0.9420925040
Li  2.6105707520  1.5072137280  2.8262775040
Hg  3.8748827360  0.7772651440  0.9420925040
Hg  2.6105668000  2.9671108880  0.9420925040
Hg  1.3462627200  0.7772651440  0.9420925040
Hg  -1.2643201520  3.7443760320  2.8262775040
Hg  -0.0000042080  1.5545302880  2.8262775040
Hg  1.2642998640  3.7443760320  2.8262775040
8
scale = 0.85000
Li  -0.0000086785  3.2028291720  1.0009732855
Li  2.7737314240  1.6014145860  3.0029198480
Hg  4.1170629070  0.8258442155  1.0009732855
Hg  2.7737272250  3.1525553185  1.0009732855
Hg  1.4304041400  0.8258442155  1.0009732855
Hg  -1.3433401615  3.9783995340  3.0029198480
Hg  -0.0000044710  1.6516884310  3.0029198480
Hg  1.3433186055  3.9783995340  3.0029198480
8
scale = 0.90000
Li  -0.0000091890  3.3912308880  1.0598540670
Li  2.9368920960  1.6956154440  3.1795621920
Hg  4.3592430780  0.8744232870  1.0598540670
Hg  2.9368876500  3.3379997490  1.0598540670
Hg  1.5145455600  0.8744232870  1.0598540670
Hg  -1.4223601710  4.2124230360  3.1795621920
Hg  -0.0000047340  1.7488465740  3.1795621920
Hg  1.4223373470  4.2124230360  3.1795621920
8
scale = 0.95000
Li  -0.0000096995  3.5796326040  1.1187348485
Li  3.1000527680  1.7898163020  3.3562045360
Hg  4.6014232490  0.9230023585  1.1187348485
Hg  3.1000480750  3.5234441795  1.1187348485
Hg  1.5986869800  0.9230023585  1.1187348485
Hg  -1.5013801805  4.4464465380  3.3562045360
Hg  -0.0000049970  1.8460047170  3.3562045360
Hg  1.5013560885  4.4464465380  3.3562045360
8
scale = 1.00000
Li  -0.0000102100  3.7680343200  1.1776156300
Li  3.2632134400  1.8840171600  3.5328468800
Hg  4.8436034200  0.9715814300  1.1776156300
Hg  3.2632085000  3.7088886100  1.1776156300
Hg  1.6828284000  0.9715814300  1.1776156300
Hg  -1.5804001900  4.6804700400  3.5328468800
Hg  -0.0000052600  1.9431628600  3.5328468800
Hg  1.5803748300  4.6804700400  3.5328468800
8
scale = 1.05000
Li  -0.0000107205  3.9564360360  1.2364964115
Li  3.4263741120  1.9782180180  3.7094892240
Hg  5.0857835910  1.0201605015  1.2364964115
Hg  3.4263689250  3.8943330405  1.2364964115
Hg  1.7669698200  1.0201605015  1.2364964115
Hg  -1.6594201995  4.9144935420  3.7094892240
Hg  -0.0000055230  2.0403210030  3.7094892240
Hg  1.6593935715  4.9144935420  3.7094892240
8
scale = 1.10000
Li  -0.0000112310  4.1448377520  1.2953771930
Li  3.5895347840  2.0724188760  3.8861315680
Hg  5.3279637620  1.0687395730  1.2953771930
Hg  3.5895293500  4.0797774710  1.2953771930
Hg  1.8511112400  1.0687395730  1.2953771930
Hg  -1.7384402090  5.1485170440  3.8861315680
Hg  -0.0000057860  2.1374791460  3.8861315680
Hg  1.7384123130  5.1485170440  3.8861315680
8
scale = 1.15000
Li  -0.0000117415  4.3332394680  1.3542579745
Li  3.7526954560  2.1666197340  4.0627739120
Hg  5.5701439330  1.1173186445  1.3542579745
Hg  3.7526897750  4.2652219015  1.3542579745
Hg  1.9352526600  1.1173186445  1.3542579745
Hg  -1.8174602185  5.3825405460  4.0627739120
Hg  -0.0000060490  2.2346372890  4.0627739120
Hg  1.8174310545  5.3825405460  4.0627739120
8
scale = 1.20000
Li  -0.0000122520  4.5216411840  1.4131387560
Li  3.9158561280  2.2608205920  4.2394162560
Hg  5.8123241040  1.1658977160  1.4131387560
Hg  3.9158502000  4.4506663320  1.4131387560
Hg  2.0193940800  1.1658977160  1.4131387560
Hg  -1.8964802280  5.6165640480  4.2394162560
Hg  -0.0000063120  2.3317954320  4.2394162560
Hg  1.8964497960  5.6165640480  4.2394162560
8
scale = 1.25000
Li  -0.0000127625  4.7100429000  1.4720195375
Li  4.0790168000  2.3550214500  4.4160586000
Hg  6.0545042750  1.2144767875  1.4720195375
Hg  4.0790106250  4.6361107625  1.4720195375
Hg  2.1035355000  1.2144767875  1.4720195375
Hg  -1.9755002375  5.8505875500  4.4160586000
Hg  -0.0000065750  2.4289535750  4.4160586000
Hg  1.9754685375  5.8505875500  4.4160586000
8
scale = 1.30000
Li  -0.0000132730  4.8984446160  1.5309003190
Li  4.2421774720  2.4492223080  4.5927009440
Hg  6.2966844460  1.2630558590  1.5309003190
Hg  4.2421710500  4.8215551930  1.5309003190
Hg  2.1876769200  1.2630558590  1.5309003190
Hg  -2.0545202470  6.0846110520  4.5927009440
Hg  -0.0000068380  2.5261117180  4.5927009440
Hg  2.0544872790  6.0846110520  4.5927009440
8
scale = 1.35000
Li  -0.0000137835  5.0868463320  1.5897811005
Li  4.4053381440  2.5434231660  4.7693432880
Hg  6.5388646170  1.3116349305  1.5897811005
Hg  4.4053314750  5.0069996235  1.5897811005
Hg  2.2718183400  1.3116349305  1.5897811005
Hg  -2.1335402565  6.3186345540  4.7693432880
Hg  -0.0000071010  2.6232698610  4.7693432880
Hg  2.1335060205  6.3186345540  4.7693432880
8
scale = 1.40000
Li  -0.0000142940  5.2752480480  1.6486618820
Li  4.5684988160  2.6376240240  4.9459856320
Hg  6.7810447880  1.3602140020  1.6486618820
Hg  4.5684919000  5.1924440540  1.6486618820
Hg  2.3559597600  1.3602140020  1.6486618820
Hg  -2.2125602660  6.5526580560  4.9459856320
Hg  -0.0000073640  2.7204280040  4.9459856320
Hg  2.2125247620  6.5526580560  4.9459856320
8
scale = 1.45000
Li  -0.0000148045  5.4636497640  1.7075426635
Li  4.7316594880  2.7318248820  5.1226279760
Hg  7.0232249590  1.4087930735  1.7075426635
Hg  4.7316523250  5.3778884845  1.7075426635
Hg  2.4401011800  1.4087930735  1.7075426635
Hg  -2.2915802755  6.7866815580  5.1226279760
Hg  -0.0000076270  2.8175861470  5.1226279760
Hg  2.2915435035  6.7866815580  5.1226279760
8
scale = 1.50000
Li  -0.0000153150  5.6520514800  1.7664234450
Li  4.8948201600  2.8260257400  5.2992703200
Hg  7.2654051300  1.4573721450  1.7664234450
Hg  4.8948127500  5.5633329150  1.7664234450
Hg  2.5242426000  1.4573721450  1.7664234450
Hg  -2.3706002850  7.0207050600  5.2992703200
Hg  -0.0000078900  2.9147442900  5.2992703200
Hg  2.3705622450  7.0207050600  5.2992703200
8
scale = 1.55000
Li  -0.0000158255  5.8404531960  1.8253042265
Li  5.0579808320  2.9202265980  5.4759126640
Hg  7.5075853010  1.5059512165  1.8253042265
Hg  5.0579731750  5.7487773455  1.8253042265
Hg  2.6083840200  1.5059512165  1.8253042265
Hg  -2.4496202945  7.2547285620  5.4759126640
Hg  -0.0000081530  3.0119024330  5.4759126640
Hg  2.4495809865  7.2547285620  5.4759126640
8
scale = 1.60000
Li  -0.0000163360  6.0288549120  1.8841850080
Li  5.2211415040  3.0144274560  5.6525550080
Hg  7.7497654720  1.5545302880  1.8841850080
Hg  5.2211336000  5.9342217760  1.8841850080
Hg  2.6925254400  1.5545302880  1.8841850080
Hg  -2.5286403040  7.4887520640  5.6525550080
Hg  -0.0000084160  3.1090605760  5.6525550080
Hg  2.5285997280  7.4887520640  5.6525550080
8
scale = 1.65000
Li  -0.0000168465  6.2172566280  1.9430657895
Li  5.3843021760  3.1086283140  5.8291973520
Hg  7.9919456430  1.6031093595  1.9430657895
Hg  5.3842940250  6.1196662065  1.9430657895
Hg  2.7766668600  1.6031093595  1.9430657895
Hg  -2.6076603135  7.7227755660  5.8291973520
Hg  -0.0000086790  3.2062187190  5.8291973520
Hg  2.6076184695  7.7227755660  5.8291973520
8
scale = 1.70000
Li  -0.0000173570  6.4056583440  2.0019465710
Li  5.5474628480  3.2028291720  6.0058396960
Hg  8.2341258140  1.6516884310  2.0019465710
Hg  5.5474544500  6.3051106370  2.0019465710
Hg  2.8608082800  1.6516884310  2.0019465710
Hg  -2.6866803230  7.9567990680  6.0058396960
Hg  -0.0000089420  3.3033768620  6.0058396960
Hg  2.6866372110  7.9567990680  6.0058396960
8
scale = 1.75000
Li  -0.0000178675  6.5940600600  2.0608273525
Li  5.7106235200  3.2970300300  6.1824820400
Hg  8.4763059850  1.7002675025  2.0608273525
Hg  5.7106148750  6.4905550675  2.0608273525
Hg  2.9449497000  1.7002675025  2.0608273525
Hg  -2.7657003325  8.1908225700  6.1824820400
Hg  -0.0000092050  3.4005350050  6.1824820400
Hg  2.7656559525  8.1908225700  6.1824820400
8
scale = 1.80000
Li  -0.0000183780  6.7824617760  2.1197081340
Li  5.8737841920  3.3912308880  6.3591243840
Hg  8.7184861560  1.7488465740  2.1197081340
Hg  5.8737753000  6.6759994980  2.1197081340
Hg  3.0290911200  1.7488465740  2.1197081340
Hg  -2.8447203420  8.4248460720  6.3591243840
Hg  -0.0000094680  3.4976931480  6.3591243840
Hg  2.8446746940  8.4248460720  6.3591243840
8
scale = 1.85000
Li  -0.0000188885  6.9708634920  2.1785889155
Li  6.0369448640  3.4854317460  6.5357667280
Hg  8.9606663270  1.7974256455  2.1785889155
Hg  6.0369357250  6.8614439285  2.1785889155
Hg  3.1132325400  1.7974256455  2.1785889155
Hg  -2.9237403515  8.6588695740  6.5357667280
Hg  -0.0000097310  3.5948512910  6.5357667280
Hg  2.9236934355  8.6588695740  6.5357667280
8
scale = 1.90000
Li  -0.0000193990  7.1592652080  2.2374696970
Li  6.2001055360  3.5796326040  6.7124090720
Hg  9.2028464980  1.8460047170  2.2374696970
Hg  6.2000961500  7.0468883590  2.2374696970
Hg  3.1973739600  1.8460047170  2.2374696970
Hg  -3.0027603610  8.8928930760  6.7124090720
Hg  -0.0000099940  3.6920094340  6.7124090720
Hg  3.0027121770  8.8928930760  6.7124090720
8
scale = 1.95000
Li  -0.0000199095  7.3476669240  2.2963504785
Li  6.3632662080  3.6738334620  6.8890514160
Hg  9.4450266690  1.8945837885  2.2963504785
Hg  6.3632565750  7.2323327895  2.2963504785
Hg  3.2815153800  1.8945837885  2.2963504785
Hg  -3.0817803705  9.1269165780  6.8890514160
Hg  -0.0000102570  3.7891675770  6.8890514160
Hg  3.0817309185  9.1269165780  6.8890514160
8
scale = 2.00000
Li  -0.0000204200  7.5360686400  2.3552312600
Li  6.5264268800  3.7680343200  7.0656937600
Hg  9.6872068400  1.9431628600  2.3552312600
Hg  6.5264170000  7.4177772200  2.3552312600
Hg  3.3656568000  1.9431628600  2.3552312600
Hg  -3.1608003800  9.3609400800  7.0656937600
Hg  -0.0000105200  3.8863257200  7.0656937600
Hg  3.1607496600  9.3609400800  7.0656937600
8
scale = 2.05000
Li  -0.0000209305  7.7244703560  2.4141120415
Li  6.6895875520  3.8622351780  7.2423361040
Hg  9.9293870110  1.9917419315  2.4141120415
Hg  6.6895774250  7.6032216505  2.4141120415
Hg  3.4497982200  1.9917419315  2.4141120415
Hg  -3.2398203895  9.5949635820  7.2423361040
Hg  -0.0000107830  3.9834838630  7.2423361040
Hg  3.2397684015  9.5949635820  7.2423361040
8
scale = 2.10000
Li  -0.0000214410  7.9128720720  2.4729928230
Li  6.8527482240  3.9564360360  7.4189784480
Hg  10.1715671820  2.0403210030  2.4729928230
Hg  6.8527378500  7.7886660810  2.4729928230
Hg  3.5339396400  2.0403210030  2.4729928230
Hg  -3.3188403990  9.8289870840  7.4189784480
Hg  -0.0000110460  4.0806420060  7.4189784480
Hg  3.3187871430  9.8289870840  7.4189784480
8
scale = 2.15000
Li  -0.0000219515  8.1012737880  2.5318736045
Li  7.0159088960  4.0506368940  7.5956207920
Hg  10.4137473530  2.0889000745  2.5318736045
Hg  7.0158982750  7.9741105115  2.5318736045
Hg  3.6180810600  2.0889000745  2.5318736045
Hg  -3.3978604085  10.0630105860  7.5956207920
Hg  -0.0000113090  4.1778001490  7.5956207920
Hg  3.3978058845  10.0630105860  7.5956207920
8
scale = 2.20000
Li  -0.0000224620  8.2896755040  2.5907543860
Li  7.1790695680  4.1448377520  7.7722631360
Hg  10.6559275240  2.1374791460  2.5907543860
Hg  7.1790587000  8.1595549420  2.5907543860
Hg  3.7022224800  2.1374791460  2.5907543860
Hg  -3.4768804180  10.2970340880  7.7722631360
Hg  -0.0000115720  4.2749582920  7.7722631360
Hg  3.4768246260  10.2970340880  7.7722631360
8
scale = 2.25000
Li  -0.0000229725  8.4780772200  2.6496351675
Li  7.3422302400  4.2390386100  7.9489054800
Hg  10.8981076950  2.1860582175  2.6496351675
Hg  7.3422191250  8.3449993725  2.6496351675
Hg  3.7863639000  2.1860582175  2.6496351675
Hg  -3.5559004275  10.5310575900  7.9489054800
Hg  -0.0000118350  4.3721164350  7.9489054800
Hg  3.5558433675  10.5310575900  7.9489054800
8
scale = 2.30000
Li  -0.0000234830  8.6664789360  2.7085159490
Li  7.5053909120  4.3332394680  8.1255478240
Hg  11.1402878660  2.2346372890  2.7085159490
Hg  7.5053795500  8.5304438030  2.7085159490
Hg  3.8705053200  2.2346372890  2.7085159490
Hg  -3.6349204370  10.7650810920  8.1255478240
Hg  -0.0000120980  4.4692745780  8.1255478240
Hg  3.6348621090  10.7650810920  8.1255478240
8
scale = 2.35000
Li  -0.0000239935  8.8548806520  2.7673967305
Li  7.6685515840  4.4274403260  8.3021901680
Hg  11.3824680370  2.2832163605  2.7673967305
Hg  7.6685399750  8.7158882335  2.7673967305
Hg  3.9546467400  2.2832163605  2.7673967305
Hg  -3.7139404465  10.9991045940  8.3021901680
Hg  -0.0000123610  4.5664327210  8.3021901680
Hg  3.7138808505  10.9991045940  8.3021901680
8
scale = 2.40000
Li  -0.0000245040  9.0432823680  2.8262775120
Li  7.8317122560  4.5216411840  8.4788325120
Hg  11.6246482080  2.3317954320  2.8262775120
Hg  7.8317004000  8.9013326640  2.8262775120
Hg  4.0387881600  2.3317954320  2.8262775120
Hg  -3.7929604560  11.2331280960  8.4788325120
Hg  -0.0000126240  4.6635908640  8.4788325120
Hg  3.7928995920  11.2331280960  8.4788325120
8
scale = 2.45000
Li  -0.0000250145  9.2316840840  2.8851582935
Li  7.9948729280  4.6158420420  8.6554748560
Hg  11.8668283790  2.3803745035  2.8851582935
Hg  7.9948608250  9.0867770945  2.8851582935
Hg  4.1229295800  2.3803745035  2.8851582935
Hg  -3.8719804655  11.4671515980  8.6554748560
Hg  -0.0000128870  4.7607490070  8.6554748560
Hg  3.8719183335  11.4671515980  8.6554748560
