2
scale = 0.75000
Li  1.2379994625  1.2379994625  1.2379994625
Hg  0.0000000000  0.0000000000  0.0000000000
2
scale = 0.80000
Li  1.3205327600  1.3205327600  1.3205327600
Hg  0.0000000000  0.0000000000  0.0000000000
2
scale = 0.85000
Li  1.4030660575  1.4030660575  1.4030660575
Hg  0.0000000000  0.0000000000  0.0000000000
2
scale = 0.90000
Li  1.4855993550  1.4855993550  1.4855993550
Hg  0.0000000000  0.0000000000  0.0000000000
2
scale = 0.95000
Li  1.5681326525  1.5681326525  1.5681326525
Hg  0.0000000000  0.0000000000  0.0000000000
2
scale = 1.00000
Li  1.6506659500  1.6506659500  1.6506659500
Hg  0.0000000000  0.0000000000  0.0000000000
2
scale = 1.05000
Li  1.7331992475  1.7331992475  1.7331992475
Hg  0.0000000000  0.0000000000  0.0000000000
2
scale = 1.10000
Li  1.8157325450  1.8157325450  1.8157325450
Hg  0.0000000000  0.0000000000  0.0000000000
2
scale = 1.15000
Li  1.8982658425  1.8982658425  1.8982658425
Hg  0.0000000000  0.0000000000  0.0000000000
2
scale = 1.20000
Li  1.9807991400  1.9807991400  1.9807991400
Hg  0.0000000000  0.0000000000  0.0000000000
2
scale = 1.25000
Li  2.0633324375  2.0633324375  2.0633324375
Hg  0.0000000000  0.0000000000  0.0000000000
2
scale = 1.30000
Li  2.1458657350  2.1458657350  2.1458657350
Hg  0.0000000000  0.0000000000  0.0000000000
2
scale = 1.35000
Li  2.2283990325  2.2283990325  2.2283990325
Hg  0.0000000000  0.0000000000  0.0000000000
2
scale = 1.40000
Li  2.3109323300  2.3109323300  2.3109323300
Hg  0.0000000000  0.0000000000  0.0000000000
2
scale = 1.45000
Li  2.3934656275  2.3934656275  2.3934656275
Hg  0.0000000000  0.0000000000  0.0000000000
2
scale = 1.50000
Li  2.4759989250  2.4759989250  2.4759989250
Hg  0.0000000000  0.0000000000  0.0000000000
2
scale = 1.55000
Li  2.5585322225  2.5585322225  2.5585322225
Hg  0.0000000000  0.0000000000  0.0000000000
2
scale = 1.60000
Li  2.6410655200  2.6410655200  2.6410655200
Hg  0.0000000000  0.0000000000  0.0000000000
2
scale = 1.65000
Li  2.7235988175  2.7235988175  2.7235988175
Hg  0.0000000000  0.0000000000  0.0000000000
2
scale = 1.70000
Li  2.8061321150  2.8061321150  2.8061321150
Hg  0.0000000000  0.0000000000  0.0000000000
2
scale = 1.75000
Li  2.8886654125  2.8886654125  2.8886654125
Hg  0.0000000000  0.0000000000  0.0000000000
2
scale = 1.80000
Li  2.9711987100  2.9711987100  2.9711987100
Hg  0.0000000000  0.0000000000  0.0000000000
2
scale = 1.85000
Li  3.0537320075  3.0537320075  3.0537320075
Hg  0.0000000000  0.0000000000  0.0000000000
2
scale = 1.90000
Li  3.1362653050  3.1362653050  3.1362653050
Hg  0.0000000000  0.0000000000  0.0000000000
2
scale = 1.95000
Li  3.2187986025  3.2187986025  3.2187986025
Hg  0.0000000000  0.0000000000  0.0000000000
2
scale = 2.00000
Li  3.3013319000  3.3013319000  3.3013319000
Hg  0.0000000000  0.0000000000  0.0000000000
2
scale = 2.05000
Li  3.3838651975  3.3838651975  3.3838651975
Hg  0.0000000000  0.0000000000  0.0000000000
2
scale = 2.10000
Li  3.4663984950  3.4663984950  3.4663984950
Hg  0.0000000000  0.0000000000  0.0000000000
2
scale = 2.15000
Li  3.5489317925  3.5489317925  3.5489317925
Hg  0.0000000000  0.0000000000  0.0000000000
2
scale = 2.20000
Li  3.6314650900  3.6314650900  3.6314650900
Hg  0.0000000000  0.0000000000  0.0000000000
2
scale = 2.25000
Li  3.7139983875  3.7139983875  3.7139983875
Hg  0.0000000000  0.0000000000  0.0000000000
2
scale = 2.30000
Li  3.7965316850  3.7965316850  3.7965316850
Hg  0.0000000000  0.0000000000  0.0000000000
2
scale = 2.35000
Li  3.8790649825  3.8790649825  3.8790649825
Hg  0.0000000000  0.0000000000  0.0000000000
2
scale = 2.40000
Li  3.9615982800  3.9615982800  3.9615982800
Hg  0.0000000000  0.0000000000  0.0000000000
2
scale = 2.45000
Li  4.0441315775  4.0441315775  4.0441315775
Hg  0.0000000000  0.0000000000  0.0000000000
