8
scale = 0.75000
Li  2.6155981275  1.5101162850  1.0324196250
Li  -0.0000005025  3.0202325625  3.0972588750
Ho  3.9084780675  0.7636718475  3.0972588750
Ho  1.3227184350  0.7636718475  3.0972588750
Ho  2.6155978800  3.0030051600  3.0972588750
Ho  -1.2928804425  3.7666770000  1.0324196250
Ho  1.2928791900  3.7666770000  1.0324196250
Ho  -0.0000002550  1.5273436875  1.0324196250
8
scale = 0.80000
Li  2.7899713360  1.6107907040  1.1012476000
Li  -0.0000005360  3.2215814000  3.3037428000
Ho  4.1690432720  0.8145833040  3.3037428000
Ho  1.4108996640  0.8145833040  3.3037428000
Ho  2.7899710720  3.2032055040  3.3037428000
Ho  -1.3790724720  4.0177888000  1.1012476000
Ho  1.3790711360  4.0177888000  1.1012476000
Ho  -0.0000002720  1.6291666000  1.1012476000
8
scale = 0.85000
Li  2.9643445445  1.7114651230  1.1700755750
Li  -0.0000005695  3.4229302375  3.5102267250
Ho  4.4296084765  0.8654947605  3.5102267250
Ho  1.4990808930  0.8654947605  3.5102267250
Ho  2.9643442640  3.4034058480  3.5102267250
Ho  -1.4652645015  4.2689006000  1.1700755750
Ho  1.4652630820  4.2689006000  1.1700755750
Ho  -0.0000002890  1.7309895125  1.1700755750
8
scale = 0.90000
Li  3.1387177530  1.8121395420  1.2389035500
Li  -0.0000006030  3.6242790750  3.7167106500
Ho  4.6901736810  0.9164062170  3.7167106500
Ho  1.5872621220  0.9164062170  3.7167106500
Ho  3.1387174560  3.6036061920  3.7167106500
Ho  -1.5514565310  4.5200124000  1.2389035500
Ho  1.5514550280  4.5200124000  1.2389035500
Ho  -0.0000003060  1.8328124250  1.2389035500
8
scale = 0.95000
Li  3.3130909615  1.9128139610  1.3077315250
Li  -0.0000006365  3.8256279125  3.9231945750
Ho  4.9507388855  0.9673176735  3.9231945750
Ho  1.6754433510  0.9673176735  3.9231945750
Ho  3.3130906480  3.8038065360  3.9231945750
Ho  -1.6376485605  4.7711242000  1.3077315250
Ho  1.6376469740  4.7711242000  1.3077315250
Ho  -0.0000003230  1.9346353375  1.3077315250
8
scale = 1.00000
Li  3.4874641700  2.0134883800  1.3765595000
Li  -0.0000006700  4.0269767500  4.1296785000
Ho  5.2113040900  1.0182291300  4.1296785000
Ho  1.7636245800  1.0182291300  4.1296785000
Ho  3.4874638400  4.0040068800  4.1296785000
Ho  -1.7238405900  5.0222360000  1.3765595000
Ho  1.7238389200  5.0222360000  1.3765595000
Ho  -0.0000003400  2.0364582500  1.3765595000
8
scale = 1.05000
Li  3.6618373785  2.1141627990  1.4453874750
Li  -0.0000007035  4.2283255875  4.3361624250
Ho  5.4718692945  1.0691405865  4.3361624250
Ho  1.8518058090  1.0691405865  4.3361624250
Ho  3.6618370320  4.2042072240  4.3361624250
Ho  -1.8100326195  5.2733478000  1.4453874750
Ho  1.8100308660  5.2733478000  1.4453874750
Ho  -0.0000003570  2.1382811625  1.4453874750
8
scale = 1.10000
Li  3.8362105870  2.2148372180  1.5142154500
Li  -0.0000007370  4.4296744250  4.5426463500
Ho  5.7324344990  1.1200520430  4.5426463500
Ho  1.9399870380  1.1200520430  4.5426463500
Ho  3.8362102240  4.4044075680  4.5426463500
Ho  -1.8962246490  5.5244596000  1.5142154500
Ho  1.8962228120  5.5244596000  1.5142154500
Ho  -0.0000003740  2.2401040750  1.5142154500
8
scale = 1.15000
Li  4.0105837955  2.3155116370  1.5830434250
Li  -0.0000007705  4.6310232625  4.7491302750
Ho  5.9929997035  1.1709634995  4.7491302750
Ho  2.0281682670  1.1709634995  4.7491302750
Ho  4.0105834160  4.6046079120  4.7491302750
Ho  -1.9824166785  5.7755714000  1.5830434250
Ho  1.9824147580  5.7755714000  1.5830434250
Ho  -0.0000003910  2.3419269875  1.5830434250
8
scale = 1.20000
Li  4.1849570040  2.4161860560  1.6518714000
Li  -0.0000008040  4.8323721000  4.9556142000
Ho  6.2535649080  1.2218749560  4.9556142000
Ho  2.1163494960  1.2218749560  4.9556142000
Ho  4.1849566080  4.8048082560  4.9556142000
Ho  -2.0686087080  6.0266832000  1.6518714000
Ho  2.0686067040  6.0266832000  1.6518714000
Ho  -0.0000004080  2.4437499000  1.6518714000
8
scale = 1.25000
Li  4.3593302125  2.5168604750  1.7206993750
Li  -0.0000008375  5.0337209375  5.1620981250
Ho  6.5141301125  1.2727864125  5.1620981250
Ho  2.2045307250  1.2727864125  5.1620981250
Ho  4.3593298000  5.0050086000  5.1620981250
Ho  -2.1548007375  6.2777950000  1.7206993750
Ho  2.1547986500  6.2777950000  1.7206993750
Ho  -0.0000004250  2.5455728125  1.7206993750
8
scale = 1.30000
Li  4.5337034210  2.6175348940  1.7895273500
Li  -0.0000008710  5.2350697750  5.3685820500
Ho  6.7746953170  1.3236978690  5.3685820500
Ho  2.2927119540  1.3236978690  5.3685820500
Ho  4.5337029920  5.2052089440  5.3685820500
Ho  -2.2409927670  6.5289068000  1.7895273500
Ho  2.2409905960  6.5289068000  1.7895273500
Ho  -0.0000004420  2.6473957250  1.7895273500
8
scale = 1.35000
Li  4.7080766295  2.7182093130  1.8583553250
Li  -0.0000009045  5.4364186125  5.5750659750
Ho  7.0352605215  1.3746093255  5.5750659750
Ho  2.3808931830  1.3746093255  5.5750659750
Ho  4.7080761840  5.4054092880  5.5750659750
Ho  -2.3271847965  6.7800186000  1.8583553250
Ho  2.3271825420  6.7800186000  1.8583553250
Ho  -0.0000004590  2.7492186375  1.8583553250
8
scale = 1.40000
Li  4.8824498380  2.8188837320  1.9271833000
Li  -0.0000009380  5.6377674500  5.7815499000
Ho  7.2958257260  1.4255207820  5.7815499000
Ho  2.4690744120  1.4255207820  5.7815499000
Ho  4.8824493760  5.6056096320  5.7815499000
Ho  -2.4133768260  7.0311304000  1.9271833000
Ho  2.4133744880  7.0311304000  1.9271833000
Ho  -0.0000004760  2.8510415500  1.9271833000
8
scale = 1.45000
Li  5.0568230465  2.9195581510  1.9960112750
Li  -0.0000009715  5.8391162875  5.9880338250
Ho  7.5563909305  1.4764322385  5.9880338250
Ho  2.5572556410  1.4764322385  5.9880338250
Ho  5.0568225680  5.8058099760  5.9880338250
Ho  -2.4995688555  7.2822422000  1.9960112750
Ho  2.4995664340  7.2822422000  1.9960112750
Ho  -0.0000004930  2.9528644625  1.9960112750
8
scale = 1.50000
Li  5.2311962550  3.0202325700  2.0648392500
Li  -0.0000010050  6.0404651250  6.1945177500
Ho  7.8169561350  1.5273436950  6.1945177500
Ho  2.6454368700  1.5273436950  6.1945177500
Ho  5.2311957600  6.0060103200  6.1945177500
Ho  -2.5857608850  7.5333540000  2.0648392500
Ho  2.5857583800  7.5333540000  2.0648392500
Ho  -0.0000005100  3.0546873750  2.0648392500
8
scale = 1.55000
Li  5.4055694635  3.1209069890  2.1336672250
Li  -0.0000010385  6.2418139625  6.4010016750
Ho  8.0775213395  1.5782551515  6.4010016750
Ho  2.7336180990  1.5782551515  6.4010016750
Ho  5.4055689520  6.2062106640  6.4010016750
Ho  -2.6719529145  7.7844658000  2.1336672250
Ho  2.6719503260  7.7844658000  2.1336672250
Ho  -0.0000005270  3.1565102875  2.1336672250
8
scale = 1.60000
Li  5.5799426720  3.2215814080  2.2024952000
Li  -0.0000010720  6.4431628000  6.6074856000
Ho  8.3380865440  1.6291666080  6.6074856000
Ho  2.8217993280  1.6291666080  6.6074856000
Ho  5.5799421440  6.4064110080  6.6074856000
Ho  -2.7581449440  8.0355776000  2.2024952000
Ho  2.7581422720  8.0355776000  2.2024952000
Ho  -0.0000005440  3.2583332000  2.2024952000
8
scale = 1.65000
Li  5.7543158805  3.3222558270  2.2713231750
Li  -0.0000011055  6.6445116375  6.8139695250
Ho  8.5986517485  1.6800780645  6.8139695250
Ho  2.9099805570  1.6800780645  6.8139695250
Ho  5.7543153360  6.6066113520  6.8139695250
Ho  -2.8443369735  8.2866894000  2.2713231750
Ho  2.8443342180  8.2866894000  2.2713231750
Ho  -0.0000005610  3.3601561125  2.2713231750
8
scale = 1.70000
Li  5.9286890890  3.4229302460  2.3401511500
Li  -0.0000011390  6.8458604750  7.0204534500
Ho  8.8592169530  1.7309895210  7.0204534500
Ho  2.9981617860  1.7309895210  7.0204534500
Ho  5.9286885280  6.8068116960  7.0204534500
Ho  -2.9305290030  8.5378012000  2.3401511500
Ho  2.9305261640  8.5378012000  2.3401511500
Ho  -0.0000005780  3.4619790250  2.3401511500
8
scale = 1.75000
Li  6.1030622975  3.5236046650  2.4089791250
Li  -0.0000011725  7.0472093125  7.2269373750
Ho  9.1197821575  1.7819009775  7.2269373750
Ho  3.0863430150  1.7819009775  7.2269373750
Ho  6.1030617200  7.0070120400  7.2269373750
Ho  -3.0167210325  8.7889130000  2.4089791250
Ho  3.0167181100  8.7889130000  2.4089791250
Ho  -0.0000005950  3.5638019375  2.4089791250
8
scale = 1.80000
Li  6.2774355060  3.6242790840  2.4778071000
Li  -0.0000012060  7.2485581500  7.4334213000
Ho  9.3803473620  1.8328124340  7.4334213000
Ho  3.1745242440  1.8328124340  7.4334213000
Ho  6.2774349120  7.2072123840  7.4334213000
Ho  -3.1029130620  9.0400248000  2.4778071000
Ho  3.1029100560  9.0400248000  2.4778071000
Ho  -0.0000006120  3.6656248500  2.4778071000
8
scale = 1.85000
Li  6.4518087145  3.7249535030  2.5466350750
Li  -0.0000012395  7.4499069875  7.6399052250
Ho  9.6409125665  1.8837238905  7.6399052250
Ho  3.2627054730  1.8837238905  7.6399052250
Ho  6.4518081040  7.4074127280  7.6399052250
Ho  -3.1891050915  9.2911366000  2.5466350750
Ho  3.1891020020  9.2911366000  2.5466350750
Ho  -0.0000006290  3.7674477625  2.5466350750
8
scale = 1.90000
Li  6.6261819230  3.8256279220  2.6154630500
Li  -0.0000012730  7.6512558250  7.8463891500
Ho  9.9014777710  1.9346353470  7.8463891500
Ho  3.3508867020  1.9346353470  7.8463891500
Ho  6.6261812960  7.6076130720  7.8463891500
Ho  -3.2752971210  9.5422484000  2.6154630500
Ho  3.2752939480  9.5422484000  2.6154630500
Ho  -0.0000006460  3.8692706750  2.6154630500
8
scale = 1.95000
Li  6.8005551315  3.9263023410  2.6842910250
Li  -0.0000013065  7.8526046625  8.0528730750
Ho  10.1620429755  1.9855468035  8.0528730750
Ho  3.4390679310  1.9855468035  8.0528730750
Ho  6.8005544880  7.8078134160  8.0528730750
Ho  -3.3614891505  9.7933602000  2.6842910250
Ho  3.3614858940  9.7933602000  2.6842910250
Ho  -0.0000006630  3.9710935875  2.6842910250
8
scale = 2.00000
Li  6.9749283400  4.0269767600  2.7531190000
Li  -0.0000013400  8.0539535000  8.2593570000
Ho  10.4226081800  2.0364582600  8.2593570000
Ho  3.5272491600  2.0364582600  8.2593570000
Ho  6.9749276800  8.0080137600  8.2593570000
Ho  -3.4476811800  10.0444720000  2.7531190000
Ho  3.4476778400  10.0444720000  2.7531190000
Ho  -0.0000006800  4.0729165000  2.7531190000
8
scale = 2.05000
Li  7.1493015485  4.1276511790  2.8219469750
Li  -0.0000013735  8.2553023375  8.4658409250
Ho  10.6831733845  2.0873697165  8.4658409250
Ho  3.6154303890  2.0873697165  8.4658409250
Ho  7.1493008720  8.2082141040  8.4658409250
Ho  -3.5338732095  10.2955838000  2.8219469750
Ho  3.5338697860  10.2955838000  2.8219469750
Ho  -0.0000006970  4.1747394125  2.8219469750
8
scale = 2.10000
Li  7.3236747570  4.2283255980  2.8907749500
Li  -0.0000014070  8.4566511750  8.6723248500
Ho  10.9437385890  2.1382811730  8.6723248500
Ho  3.7036116180  2.1382811730  8.6723248500
Ho  7.3236740640  8.4084144480  8.6723248500
Ho  -3.6200652390  10.5466956000  2.8907749500
Ho  3.6200617320  10.5466956000  2.8907749500
Ho  -0.0000007140  4.2765623250  2.8907749500
8
scale = 2.15000
Li  7.4980479655  4.3290000170  2.9596029250
Li  -0.0000014405  8.6580000125  8.8788087750
Ho  11.2043037935  2.1891926295  8.8788087750
Ho  3.7917928470  2.1891926295  8.8788087750
Ho  7.4980472560  8.6086147920  8.8788087750
Ho  -3.7062572685  10.7978074000  2.9596029250
Ho  3.7062536780  10.7978074000  2.9596029250
Ho  -0.0000007310  4.3783852375  2.9596029250
8
scale = 2.20000
Li  7.6724211740  4.4296744360  3.0284309000
Li  -0.0000014740  8.8593488500  9.0852927000
Ho  11.4648689980  2.2401040860  9.0852927000
Ho  3.8799740760  2.2401040860  9.0852927000
Ho  7.6724204480  8.8088151360  9.0852927000
Ho  -3.7924492980  11.0489192000  3.0284309000
Ho  3.7924456240  11.0489192000  3.0284309000
Ho  -0.0000007480  4.4802081500  3.0284309000
8
scale = 2.25000
Li  7.8467943825  4.5303488550  3.0972588750
Li  -0.0000015075  9.0606976875  9.2917766250
Ho  11.7254342025  2.2910155425  9.2917766250
Ho  3.9681553050  2.2910155425  9.2917766250
Ho  7.8467936400  9.0090154800  9.2917766250
Ho  -3.8786413275  11.3000310000  3.0972588750
Ho  3.8786375700  11.3000310000  3.0972588750
Ho  -0.0000007650  4.5820310625  3.0972588750
8
scale = 2.30000
Li  8.0211675910  4.6310232740  3.1660868500
Li  -0.0000015410  9.2620465250  9.4982605500
Ho  11.9859994070  2.3419269990  9.4982605500
Ho  4.0563365340  2.3419269990  9.4982605500
Ho  8.0211668320  9.2092158240  9.4982605500
Ho  -3.9648333570  11.5511428000  3.1660868500
Ho  3.9648295160  11.5511428000  3.1660868500
Ho  -0.0000007820  4.6838539750  3.1660868500
8
scale = 2.35000
Li  8.1955407995  4.7316976930  3.2349148250
Li  -0.0000015745  9.4633953625  9.7047444750
Ho  12.2465646115  2.3928384555  9.7047444750
Ho  4.1445177630  2.3928384555  9.7047444750
Ho  8.1955400240  9.4094161680  9.7047444750
Ho  -4.0510253865  11.8022546000  3.2349148250
Ho  4.0510214620  11.8022546000  3.2349148250
Ho  -0.0000007990  4.7856768875  3.2349148250
8
scale = 2.40000
Li  8.3699140080  4.8323721120  3.3037428000
Li  -0.0000016080  9.6647442000  9.9112284000
Ho  12.5071298160  2.4437499120  9.9112284000
Ho  4.2326989920  2.4437499120  9.9112284000
Ho  8.3699132160  9.6096165120  9.9112284000
Ho  -4.1372174160  12.0533664000  3.3037428000
Ho  4.1372134080  12.0533664000  3.3037428000
Ho  -0.0000008160  4.8874998000  3.3037428000
8
scale = 2.45000
Li  8.5442872165  4.9330465310  3.3725707750
Li  -0.0000016415  9.8660930375  10.1177123250
Ho  12.7676950205  2.4946613685  10.1177123250
Ho  4.3208802210  2.4946613685  10.1177123250
Ho  8.5442864080  9.8098168560  10.1177123250
Ho  -4.2234094455  12.3044782000  3.3725707750
Ho  4.2234053540  12.3044782000  3.3725707750
Ho  -0.0000008330  4.9893227125  3.3725707750
