4
scale = 0.75000
Li  0.0000007650  1.9676402025  5.4515009250
Li  1.7040263475  0.9838200975  2.7171143400
I   0.0000007650  1.9676402025  2.0680621875
I   1.7040263475  0.9838200975  4.8024487725
4
scale = 0.80000
Li  0.0000008160  2.0988162160  5.8149343200
Li  1.8176281040  1.0494081040  2.8982552960
I   0.0000008160  2.0988162160  2.2059330000
I   1.8176281040  1.0494081040  5.1226120240
4
scale = 0.85000
Li  0.0000008670  2.2299922295  6.1783677150
Li  1.9312298605  1.1149961105  3.0793962520
I   0.0000008670  2.2299922295  2.3438038125
I   1.9312298605  1.1149961105  5.4427752755
4
scale = 0.90000
Li  0.0000009180  2.3611682430  6.5418011100
Li  2.0448316170  1.1805841170  3.2605372080
I   0.0000009180  2.3611682430  2.4816746250
I   2.0448316170  1.1805841170  5.7629385270
4
scale = 0.95000
Li  0.0000009690  2.4923442565  6.9052345050
Li  2.1584333735  1.2461721235  3.4416781640
I   0.0000009690  2.4923442565  2.6195454375
I   2.1584333735  1.2461721235  6.0831017785
4
scale = 1.00000
Li  0.0000010200  2.6235202700  7.2686679000
Li  2.2720351300  1.3117601300  3.6228191200
I   0.0000010200  2.6235202700  2.7574162500
I   2.2720351300  1.3117601300  6.4032650300
4
scale = 1.05000
Li  0.0000010710  2.7546962835  7.6321012950
Li  2.3856368865  1.3773481365  3.8039600760
I   0.0000010710  2.7546962835  2.8952870625
I   2.3856368865  1.3773481365  6.7234282815
4
scale = 1.10000
Li  0.0000011220  2.8858722970  7.9955346900
Li  2.4992386430  1.4429361430  3.9851010320
I   0.0000011220  2.8858722970  3.0331578750
I   2.4992386430  1.4429361430  7.0435915330
4
scale = 1.15000
Li  0.0000011730  3.0170483105  8.3589680850
Li  2.6128403995  1.5085241495  4.1662419880
I   0.0000011730  3.0170483105  3.1710286875
I   2.6128403995  1.5085241495  7.3637547845
4
scale = 1.20000
Li  0.0000012240  3.1482243240  8.7224014800
Li  2.7264421560  1.5741121560  4.3473829440
I   0.0000012240  3.1482243240  3.3088995000
I   2.7264421560  1.5741121560  7.6839180360
4
scale = 1.25000
Li  0.0000012750  3.2794003375  9.0858348750
Li  2.8400439125  1.6397001625  4.5285239000
I   0.0000012750  3.2794003375  3.4467703125
I   2.8400439125  1.6397001625  8.0040812875
4
scale = 1.30000
Li  0.0000013260  3.4105763510  9.4492682700
Li  2.9536456690  1.7052881690  4.7096648560
I   0.0000013260  3.4105763510  3.5846411250
I   2.9536456690  1.7052881690  8.3242445390
4
scale = 1.35000
Li  0.0000013770  3.5417523645  9.8127016650
Li  3.0672474255  1.7708761755  4.8908058120
I   0.0000013770  3.5417523645  3.7225119375
I   3.0672474255  1.7708761755  8.6444077905
4
scale = 1.40000
Li  0.0000014280  3.6729283780  10.1761350600
Li  3.1808491820  1.8364641820  5.0719467680
I   0.0000014280  3.6729283780  3.8603827500
I   3.1808491820  1.8364641820  8.9645710420
4
scale = 1.45000
Li  0.0000014790  3.8041043915  10.5395684550
Li  3.2944509385  1.9020521885  5.2530877240
I   0.0000014790  3.8041043915  3.9982535625
I   3.2944509385  1.9020521885  9.2847342935
4
scale = 1.50000
Li  0.0000015300  3.9352804050  10.9030018500
Li  3.4080526950  1.9676401950  5.4342286800
I   0.0000015300  3.9352804050  4.1361243750
I   3.4080526950  1.9676401950  9.6048975450
4
scale = 1.55000
Li  0.0000015810  4.0664564185  11.2664352450
Li  3.5216544515  2.0332282015  5.6153696360
I   0.0000015810  4.0664564185  4.2739951875
I   3.5216544515  2.0332282015  9.9250607965
4
scale = 1.60000
Li  0.0000016320  4.1976324320  11.6298686400
Li  3.6352562080  2.0988162080  5.7965105920
I   0.0000016320  4.1976324320  4.4118660000
I   3.6352562080  2.0988162080  10.2452240480
4
scale = 1.65000
Li  0.0000016830  4.3288084455  11.9933020350
Li  3.7488579645  2.1644042145  5.9776515480
I   0.0000016830  4.3288084455  4.5497368125
I   3.7488579645  2.1644042145  10.5653872995
4
scale = 1.70000
Li  0.0000017340  4.4599844590  12.3567354300
Li  3.8624597210  2.2299922210  6.1587925040
I   0.0000017340  4.4599844590  4.6876076250
I   3.8624597210  2.2299922210  10.8855505510
4
scale = 1.75000
Li  0.0000017850  4.5911604725  12.7201688250
Li  3.9760614775  2.2955802275  6.3399334600
I   0.0000017850  4.5911604725  4.8254784375
I   3.9760614775  2.2955802275  11.2057138025
4
scale = 1.80000
Li  0.0000018360  4.7223364860  13.0836022200
Li  4.0896632340  2.3611682340  6.5210744160
I   0.0000018360  4.7223364860  4.9633492500
I   4.0896632340  2.3611682340  11.5258770540
4
scale = 1.85000
Li  0.0000018870  4.8535124995  13.4470356150
Li  4.2032649905  2.4267562405  6.7022153720
I   0.0000018870  4.8535124995  5.1012200625
I   4.2032649905  2.4267562405  11.8460403055
4
scale = 1.90000
Li  0.0000019380  4.9846885130  13.8104690100
Li  4.3168667470  2.4923442470  6.8833563280
I   0.0000019380  4.9846885130  5.2390908750
I   4.3168667470  2.4923442470  12.1662035570
4
scale = 1.95000
Li  0.0000019890  5.1158645265  14.1739024050
Li  4.4304685035  2.5579322535  7.0644972840
I   0.0000019890  5.1158645265  5.3769616875
I   4.4304685035  2.5579322535  12.4863668085
4
scale = 2.00000
Li  0.0000020400  5.2470405400  14.5373358000
Li  4.5440702600  2.6235202600  7.2456382400
I   0.0000020400  5.2470405400  5.5148325000
I   4.5440702600  2.6235202600  12.8065300600
4
scale = 2.05000
Li  0.0000020910  5.3782165535  14.9007691950
Li  4.6576720165  2.6891082665  7.4267791960
I   0.0000020910  5.3782165535  5.6527033125
I   4.6576720165  2.6891082665  13.1266933115
4
scale = 2.10000
Li  0.0000021420  5.5093925670  15.2642025900
Li  4.7712737730  2.7546962730  7.6079201520
I   0.0000021420  5.5093925670  5.7905741250
I   4.7712737730  2.7546962730  13.4468565630
4
scale = 2.15000
Li  0.0000021930  5.6405685805  15.6276359850
Li  4.8848755295  2.8202842795  7.7890611080
I   0.0000021930  5.6405685805  5.9284449375
I   4.8848755295  2.8202842795  13.7670198145
4
scale = 2.20000
Li  0.0000022440  5.7717445940  15.9910693800
Li  4.9984772860  2.8858722860  7.9702020640
I   0.0000022440  5.7717445940  6.0663157500
I   4.9984772860  2.8858722860  14.0871830660
4
scale = 2.25000
Li  0.0000022950  5.9029206075  16.3545027750
Li  5.1120790425  2.9514602925  8.1513430200
I   0.0000022950  5.9029206075  6.2041865625
I   5.1120790425  2.9514602925  14.4073463175
4
scale = 2.30000
Li  0.0000023460  6.0340966210  16.7179361700
Li  5.2256807990  3.0170482990  8.3324839760
I   0.0000023460  6.0340966210  6.3420573750
I   5.2256807990  3.0170482990  14.7275095690
4
scale = 2.35000
Li  0.0000023970  6.1652726345  17.0813695650
Li  5.3392825555  3.0826363055  8.5136249320
I   0.0000023970  6.1652726345  6.4799281875
I   5.3392825555  3.0826363055  15.0476728205
4
scale = 2.40000
Li  0.0000024480  6.2964486480  17.4448029600
Li  5.4528843120  3.1482243120  8.6947658880
I   0.0000024480  6.2964486480  6.6177990000
I   5.4528843120  3.1482243120  15.3678360720
4
scale = 2.45000
Li  0.0000024990  6.4276246615  17.8082363550
Li  5.5664860685  3.2138123185  8.8759068440
I   0.0000024990  6.4276246615  6.7556698125
I   5.5664860685  3.2138123185  15.6879993235
