2
scale = 0.75000
Li  0.0000000000  0.0000000000  0.0000000000
I   1.8274284300  1.2921865650  3.1651986075
2
scale = 0.80000
Li  0.0000000000  0.0000000000  0.0000000000
I   1.9492569920  1.3783323360  3.3762118480
2
scale = 0.85000
Li  0.0000000000  0.0000000000  0.0000000000
I   2.0710855540  1.4644781070  3.5872250885
2
scale = 0.90000
Li  0.0000000000  0.0000000000  0.0000000000
I   2.1929141160  1.5506238780  3.7982383290
2
scale = 0.95000
Li  0.0000000000  0.0000000000  0.0000000000
I   2.3147426780  1.6367696490  4.0092515695
2
scale = 1.00000
Li  0.0000000000  0.0000000000  0.0000000000
I   2.4365712400  1.7229154200  4.2202648100
2
scale = 1.05000
Li  0.0000000000  0.0000000000  0.0000000000
I   2.5583998020  1.8090611910  4.4312780505
2
scale = 1.10000
Li  0.0000000000  0.0000000000  0.0000000000
I   2.6802283640  1.8952069620  4.6422912910
2
scale = 1.15000
Li  0.0000000000  0.0000000000  0.0000000000
I   2.8020569260  1.9813527330  4.8533045315
2
scale = 1.20000
Li  0.0000000000  0.0000000000  0.0000000000
I   2.9238854880  2.0674985040  5.0643177720
2
scale = 1.25000
Li  0.0000000000  0.0000000000  0.0000000000
I   3.0457140500  2.1536442750  5.2753310125
2
scale = 1.30000
Li  0.0000000000  0.0000000000  0.0000000000
I   3.1675426120  2.2397900460  5.4863442530
2
scale = 1.35000
Li  0.0000000000  0.0000000000  0.0000000000
I   3.2893711740  2.3259358170  5.6973574935
2
scale = 1.40000
Li  0.0000000000  0.0000000000  0.0000000000
I   3.4111997360  2.4120815880  5.9083707340
2
scale = 1.45000
Li  0.0000000000  0.0000000000  0.0000000000
I   3.5330282980  2.4982273590  6.1193839745
2
scale = 1.50000
Li  0.0000000000  0.0000000000  0.0000000000
I   3.6548568600  2.5843731300  6.3303972150
2
scale = 1.55000
Li  0.0000000000  0.0000000000  0.0000000000
I   3.7766854220  2.6705189010  6.5414104555
2
scale = 1.60000
Li  0.0000000000  0.0000000000  0.0000000000
I   3.8985139840  2.7566646720  6.7524236960
2
scale = 1.65000
Li  0.0000000000  0.0000000000  0.0000000000
I   4.0203425460  2.8428104430  6.9634369365
2
scale = 1.70000
Li  0.0000000000  0.0000000000  0.0000000000
I   4.1421711080  2.9289562140  7.1744501770
2
scale = 1.75000
Li  0.0000000000  0.0000000000  0.0000000000
I   4.2639996700  3.0151019850  7.3854634175
2
scale = 1.80000
Li  0.0000000000  0.0000000000  0.0000000000
I   4.3858282320  3.1012477560  7.5964766580
2
scale = 1.85000
Li  0.0000000000  0.0000000000  0.0000000000
I   4.5076567940  3.1873935270  7.8074898985
2
scale = 1.90000
Li  0.0000000000  0.0000000000  0.0000000000
I   4.6294853560  3.2735392980  8.0185031390
2
scale = 1.95000
Li  0.0000000000  0.0000000000  0.0000000000
I   4.7513139180  3.3596850690  8.2295163795
2
scale = 2.00000
Li  0.0000000000  0.0000000000  0.0000000000
I   4.8731424800  3.4458308400  8.4405296200
2
scale = 2.05000
Li  0.0000000000  0.0000000000  0.0000000000
I   4.9949710420  3.5319766110  8.6515428605
2
scale = 2.10000
Li  0.0000000000  0.0000000000  0.0000000000
I   5.1167996040  3.6181223820  8.8625561010
2
scale = 2.15000
Li  0.0000000000  0.0000000000  0.0000000000
I   5.2386281660  3.7042681530  9.0735693415
2
scale = 2.20000
Li  0.0000000000  0.0000000000  0.0000000000
I   5.3604567280  3.7904139240  9.2845825820
2
scale = 2.25000
Li  0.0000000000  0.0000000000  0.0000000000
I   5.4822852900  3.8765596950  9.4955958225
2
scale = 2.30000
Li  0.0000000000  0.0000000000  0.0000000000
I   5.6041138520  3.9627054660  9.7066090630
2
scale = 2.35000
Li  0.0000000000  0.0000000000  0.0000000000
I   5.7259424140  4.0488512370  9.9176223035
2
scale = 2.40000
Li  0.0000000000  0.0000000000  0.0000000000
I   5.8477709760  4.1349970080  10.1286355440
2
scale = 2.45000
Li  0.0000000000  0.0000000000  0.0000000000
I   5.9695995380  4.2211427790  10.3396487845
