4
scale = 0.75000
Li  2.6083196850  1.8443608875  4.5177431325
Li  1.5649918125  1.1066165325  2.7106458750
In  0.5216639400  0.3688721775  0.9035486250
In  3.6516475575  2.5821052425  6.3248403825
4
scale = 0.80000
Li  2.7822076640  1.9673182800  4.8189260080
Li  1.6693246000  1.1803909680  2.8913556000
In  0.5564415360  0.3934636560  0.9637852000
In  3.8950907280  2.7542455920  6.7464964080
4
scale = 0.85000
Li  2.9560956430  2.0902756725  5.1201088835
Li  1.7736573875  1.2541654035  3.0720653250
In  0.5912191320  0.4180551345  1.0240217750
In  4.1385338985  2.9263859415  7.1681524335
4
scale = 0.90000
Li  3.1299836220  2.2132330650  5.4212917590
Li  1.8779901750  1.3279398390  3.2527750500
In  0.6259967280  0.4426466130  1.0842583500
In  4.3819770690  3.0985262910  7.5898084590
4
scale = 0.95000
Li  3.3038716010  2.3361904575  5.7224746345
Li  1.9823229625  1.4017142745  3.4334847750
In  0.6607743240  0.4672380915  1.1444949250
In  4.6254202395  3.2706666405  8.0114644845
4
scale = 1.00000
Li  3.4777595800  2.4591478500  6.0236575100
Li  2.0866557500  1.4754887100  3.6141945000
In  0.6955519200  0.4918295700  1.2047315000
In  4.8688634100  3.4428069900  8.4331205100
4
scale = 1.05000
Li  3.6516475590  2.5821052425  6.3248403855
Li  2.1909885375  1.5492631455  3.7949042250
In  0.7303295160  0.5164210485  1.2649680750
In  5.1123065805  3.6149473395  8.8547765355
4
scale = 1.10000
Li  3.8255355380  2.7050626350  6.6260232610
Li  2.2953213250  1.6230375810  3.9756139500
In  0.7651071120  0.5410125270  1.3252046500
In  5.3557497510  3.7870876890  9.2764325610
4
scale = 1.15000
Li  3.9994235170  2.8280200275  6.9272061365
Li  2.3996541125  1.6968120165  4.1563236750
In  0.7998847080  0.5656040055  1.3854412250
In  5.5991929215  3.9592280385  9.6980885865
4
scale = 1.20000
Li  4.1733114960  2.9509774200  7.2283890120
Li  2.5039869000  1.7705864520  4.3370334000
In  0.8346623040  0.5901954840  1.4456778000
In  5.8426360920  4.1313683880  10.1197446120
4
scale = 1.25000
Li  4.3471994750  3.0739348125  7.5295718875
Li  2.6083196875  1.8443608875  4.5177431250
In  0.8694399000  0.6147869625  1.5059143750
In  6.0860792625  4.3035087375  10.5414006375
4
scale = 1.30000
Li  4.5210874540  3.1968922050  7.8307547630
Li  2.7126524750  1.9181353230  4.6984528500
In  0.9042174960  0.6393784410  1.5661509500
In  6.3295224330  4.4756490870  10.9630566630
4
scale = 1.35000
Li  4.6949754330  3.3198495975  8.1319376385
Li  2.8169852625  1.9919097585  4.8791625750
In  0.9389950920  0.6639699195  1.6263875250
In  6.5729656035  4.6477894365  11.3847126885
4
scale = 1.40000
Li  4.8688634120  3.4428069900  8.4331205140
Li  2.9213180500  2.0656841940  5.0598723000
In  0.9737726880  0.6885613980  1.6866241000
In  6.8164087740  4.8199297860  11.8063687140
4
scale = 1.45000
Li  5.0427513910  3.5657643825  8.7343033895
Li  3.0256508375  2.1394586295  5.2405820250
In  1.0085502840  0.7131528765  1.7468606750
In  7.0598519445  4.9920701355  12.2280247395
4
scale = 1.50000
Li  5.2166393700  3.6887217750  9.0354862650
Li  3.1299836250  2.2132330650  5.4212917500
In  1.0433278800  0.7377443550  1.8070972500
In  7.3032951150  5.1642104850  12.6496807650
4
scale = 1.55000
Li  5.3905273490  3.8116791675  9.3366691405
Li  3.2343164125  2.2870075005  5.6020014750
In  1.0781054760  0.7623358335  1.8673338250
In  7.5467382855  5.3363508345  13.0713367905
4
scale = 1.60000
Li  5.5644153280  3.9346365600  9.6378520160
Li  3.3386492000  2.3607819360  5.7827112000
In  1.1128830720  0.7869273120  1.9275704000
In  7.7901814560  5.5084911840  13.4929928160
4
scale = 1.65000
Li  5.7383033070  4.0575939525  9.9390348915
Li  3.4429819875  2.4345563715  5.9634209250
In  1.1476606680  0.8115187905  1.9878069750
In  8.0336246265  5.6806315335  13.9146488415
4
scale = 1.70000
Li  5.9121912860  4.1805513450  10.2402177670
Li  3.5473147750  2.5083308070  6.1441306500
In  1.1824382640  0.8361102690  2.0480435500
In  8.2770677970  5.8527718830  14.3363048670
4
scale = 1.75000
Li  6.0860792650  4.3035087375  10.5414006425
Li  3.6516475625  2.5821052425  6.3248403750
In  1.2172158600  0.8607017475  2.1082801250
In  8.5205109675  6.0249122325  14.7579608925
4
scale = 1.80000
Li  6.2599672440  4.4264661300  10.8425835180
Li  3.7559803500  2.6558796780  6.5055501000
In  1.2519934560  0.8852932260  2.1685167000
In  8.7639541380  6.1970525820  15.1796169180
4
scale = 1.85000
Li  6.4338552230  4.5494235225  11.1437663935
Li  3.8603131375  2.7296541135  6.6862598250
In  1.2867710520  0.9098847045  2.2287532750
In  9.0073973085  6.3691929315  15.6012729435
4
scale = 1.90000
Li  6.6077432020  4.6723809150  11.4449492690
Li  3.9646459250  2.8034285490  6.8669695500
In  1.3215486480  0.9344761830  2.2889898500
In  9.2508404790  6.5413332810  16.0229289690
4
scale = 1.95000
Li  6.7816311810  4.7953383075  11.7461321445
Li  4.0689787125  2.8772029845  7.0476792750
In  1.3563262440  0.9590676615  2.3492264250
In  9.4942836495  6.7134736305  16.4445849945
4
scale = 2.00000
Li  6.9555191600  4.9182957000  12.0473150200
Li  4.1733115000  2.9509774200  7.2283890000
In  1.3911038400  0.9836591400  2.4094630000
In  9.7377268200  6.8856139800  16.8662410200
4
scale = 2.05000
Li  7.1294071390  5.0412530925  12.3484978955
Li  4.2776442875  3.0247518555  7.4090987250
In  1.4258814360  1.0082506185  2.4696995750
In  9.9811699905  7.0577543295  17.2878970455
4
scale = 2.10000
Li  7.3032951180  5.1642104850  12.6496807710
Li  4.3819770750  3.0985262910  7.5898084500
In  1.4606590320  1.0328420970  2.5299361500
In  10.2246131610  7.2298946790  17.7095530710
4
scale = 2.15000
Li  7.4771830970  5.2871678775  12.9508636465
Li  4.4863098625  3.1723007265  7.7705181750
In  1.4954366280  1.0574335755  2.5901727250
In  10.4680563315  7.4020350285  18.1312090965
4
scale = 2.20000
Li  7.6510710760  5.4101252700  13.2520465220
Li  4.5906426500  3.2460751620  7.9512279000
In  1.5302142240  1.0820250540  2.6504093000
In  10.7114995020  7.5741753780  18.5528651220
4
scale = 2.25000
Li  7.8249590550  5.5330826625  13.5532293975
Li  4.6949754375  3.3198495975  8.1319376250
In  1.5649918200  1.1066165325  2.7106458750
In  10.9549426725  7.7463157275  18.9745211475
4
scale = 2.30000
Li  7.9988470340  5.6560400550  13.8544122730
Li  4.7993082250  3.3936240330  8.3126473500
In  1.5997694160  1.1312080110  2.7708824500
In  11.1983858430  7.9184560770  19.3961771730
4
scale = 2.35000
Li  8.1727350130  5.7789974475  14.1555951485
Li  4.9036410125  3.4673984685  8.4933570750
In  1.6345470120  1.1557994895  2.8311190250
In  11.4418290135  8.0905964265  19.8178331985
4
scale = 2.40000
Li  8.3466229920  5.9019548400  14.4567780240
Li  5.0079738000  3.5411729040  8.6740668000
In  1.6693246080  1.1803909680  2.8913556000
In  11.6852721840  8.2627367760  20.2394892240
4
scale = 2.45000
Li  8.5205109710  6.0249122325  14.7579608995
Li  5.1123065875  3.6149473395  8.8547765250
In  1.7041022040  1.2049824465  2.9515921750
In  11.9287153545  8.4348771255  20.6611452495
