6
scale = 0.75000
Li  4.0114013400  1.1242938375  2.3442703725
Li  2.4005115825  0.0233418975  5.5385718375
Li  2.4641410425  1.6592266125  3.9414211050
Mg  2.0693748600  2.2368401925  1.7542620225
Mg  0.8234827500  0.5516868750  2.7662390625
Mg  4.0919817000  2.7855208425  5.1166031475
6
scale = 0.80000
Li  4.2788280960  1.1992467600  2.5005550640
Li  2.5605456880  0.0248980240  5.9078099600
Li  2.6284171120  1.7698417200  4.2041825120
Mg  2.2073331840  2.3859628720  1.8712128240
Mg  0.8783816000  0.5884660000  2.9506550000
Mg  4.3647804800  2.9712222320  5.4577100240
6
scale = 0.85000
Li  4.5462548520  1.2741996825  2.6568397555
Li  2.7205797935  0.0264541505  6.2770480825
Li  2.7926931815  1.8804568275  4.4669439190
Mg  2.3452915080  2.5350855515  1.9881636255
Mg  0.9332804500  0.6252451250  3.1350709375
Mg  4.6375792600  3.1569236215  5.7988169005
6
scale = 0.90000
Li  4.8136816080  1.3491526050  2.8131244470
Li  2.8806138990  0.0280102770  6.6462862050
Li  2.9569692510  1.9910719350  4.7297053260
Mg  2.4832498320  2.6842082310  2.1051144270
Mg  0.9881793000  0.6620242500  3.3194868750
Mg  4.9103780400  3.3426250110  6.1399237770
6
scale = 0.95000
Li  5.0811083640  1.4241055275  2.9694091385
Li  3.0406480045  0.0295664035  7.0155243275
Li  3.1212453205  2.1016870425  4.9924667330
Mg  2.6212081560  2.8333309105  2.2220652285
Mg  1.0430781500  0.6988033750  3.5039028125
Mg  5.1831768200  3.5283264005  6.4810306535
6
scale = 1.00000
Li  5.3485351200  1.4990584500  3.1256938300
Li  3.2006821100  0.0311225300  7.3847624500
Li  3.2855213900  2.2123021500  5.2552281400
Mg  2.7591664800  2.9824535900  2.3390160300
Mg  1.0979770000  0.7355825000  3.6883187500
Mg  5.4559756000  3.7140277900  6.8221375300
6
scale = 1.05000
Li  5.6159618760  1.5740113725  3.2819785215
Li  3.3607162155  0.0326786565  7.7540005725
Li  3.4497974595  2.3229172575  5.5179895470
Mg  2.8971248040  3.1315762695  2.4559668315
Mg  1.1528758500  0.7723616250  3.8727346875
Mg  5.7287743800  3.8997291795  7.1632444065
6
scale = 1.10000
Li  5.8833886320  1.6489642950  3.4382632130
Li  3.5207503210  0.0342347830  8.1232386950
Li  3.6140735290  2.4335323650  5.7807509540
Mg  3.0350831280  3.2806989490  2.5729176330
Mg  1.2077747000  0.8091407500  4.0571506250
Mg  6.0015731600  4.0854305690  7.5043512830
6
scale = 1.15000
Li  6.1508153880  1.7239172175  3.5945479045
Li  3.6807844265  0.0357909095  8.4924768175
Li  3.7783495985  2.5441474725  6.0435123610
Mg  3.1730414520  3.4298216285  2.6898684345
Mg  1.2626735500  0.8459198750  4.2415665625
Mg  6.2743719400  4.2711319585  7.8454581595
6
scale = 1.20000
Li  6.4182421440  1.7988701400  3.7508325960
Li  3.8408185320  0.0373470360  8.8617149400
Li  3.9426256680  2.6547625800  6.3062737680
Mg  3.3109997760  3.5789443080  2.8068192360
Mg  1.3175724000  0.8826990000  4.4259825000
Mg  6.5471707200  4.4568333480  8.1865650360
6
scale = 1.25000
Li  6.6856689000  1.8738230625  3.9071172875
Li  4.0008526375  0.0389031625  9.2309530625
Li  4.1069017375  2.7653776875  6.5690351750
Mg  3.4489581000  3.7280669875  2.9237700375
Mg  1.3724712500  0.9194781250  4.6103984375
Mg  6.8199695000  4.6425347375  8.5276719125
6
scale = 1.30000
Li  6.9530956560  1.9487759850  4.0634019790
Li  4.1608867430  0.0404592890  9.6001911850
Li  4.2711778070  2.8759927950  6.8317965820
Mg  3.5869164240  3.8771896670  3.0407208390
Mg  1.4273701000  0.9562572500  4.7948143750
Mg  7.0927682800  4.8282361270  8.8687787890
6
scale = 1.35000
Li  7.2205224120  2.0237289075  4.2196866705
Li  4.3209208485  0.0420154155  9.9694293075
Li  4.4354538765  2.9866079025  7.0945579890
Mg  3.7248747480  4.0263123465  3.1576716405
Mg  1.4822689500  0.9930363750  4.9792303125
Mg  7.3655670600  5.0139375165  9.2098856655
6
scale = 1.40000
Li  7.4879491680  2.0986818300  4.3759713620
Li  4.4809549540  0.0435715420  10.3386674300
Li  4.5997299460  3.0972230100  7.3573193960
Mg  3.8628330720  4.1754350260  3.2746224420
Mg  1.5371678000  1.0298155000  5.1636462500
Mg  7.6383658400  5.1996389060  9.5509925420
6
scale = 1.45000
Li  7.7553759240  2.1736347525  4.5322560535
Li  4.6409890595  0.0451276685  10.7079055525
Li  4.7640060155  3.2078381175  7.6200808030
Mg  4.0007913960  4.3245577055  3.3915732435
Mg  1.5920666500  1.0665946250  5.3480621875
Mg  7.9111646200  5.3853402955  9.8920994185
6
scale = 1.50000
Li  8.0228026800  2.2485876750  4.6885407450
Li  4.8010231650  0.0466837950  11.0771436750
Li  4.9282820850  3.3184532250  7.8828422100
Mg  4.1387497200  4.4736803850  3.5085240450
Mg  1.6469655000  1.1033737500  5.5324781250
Mg  8.1839634000  5.5710416850  10.2332062950
6
scale = 1.55000
Li  8.2902294360  2.3235405975  4.8448254365
Li  4.9610572705  0.0482399215  11.4463817975
Li  5.0925581545  3.4290683325  8.1456036170
Mg  4.2767080440  4.6228030645  3.6254748465
Mg  1.7018643500  1.1401528750  5.7168940625
Mg  8.4567621800  5.7567430745  10.5743131715
6
scale = 1.60000
Li  8.5576561920  2.3984935200  5.0011101280
Li  5.1210913760  0.0497960480  11.8156199200
Li  5.2568342240  3.5396834400  8.4083650240
Mg  4.4146663680  4.7719257440  3.7424256480
Mg  1.7567632000  1.1769320000  5.9013100000
Mg  8.7295609600  5.9424444640  10.9154200480
6
scale = 1.65000
Li  8.8250829480  2.4734464425  5.1573948195
Li  5.2811254815  0.0513521745  12.1848580425
Li  5.4211102935  3.6502985475  8.6711264310
Mg  4.5526246920  4.9210484235  3.8593764495
Mg  1.8116620500  1.2137111250  6.0857259375
Mg  9.0023597400  6.1281458535  11.2565269245
6
scale = 1.70000
Li  9.0925097040  2.5483993650  5.3136795110
Li  5.4411595870  0.0529083010  12.5540961650
Li  5.5853863630  3.7609136550  8.9338878380
Mg  4.6905830160  5.0701711030  3.9763272510
Mg  1.8665609000  1.2504902500  6.2701418750
Mg  9.2751585200  6.3138472430  11.5976338010
6
scale = 1.75000
Li  9.3599364600  2.6233522875  5.4699642025
Li  5.6011936925  0.0544644275  12.9233342875
Li  5.7496624325  3.8715287625  9.1966492450
Mg  4.8285413400  5.2192937825  4.0932780525
Mg  1.9214597500  1.2872693750  6.4545578125
Mg  9.5479573000  6.4995486325  11.9387406775
6
scale = 1.80000
Li  9.6273632160  2.6983052100  5.6262488940
Li  5.7612277980  0.0560205540  13.2925724100
Li  5.9139385020  3.9821438700  9.4594106520
Mg  4.9664996640  5.3684164620  4.2102288540
Mg  1.9763586000  1.3240485000  6.6389737500
Mg  9.8207560800  6.6852500220  12.2798475540
6
scale = 1.85000
Li  9.8947899720  2.7732581325  5.7825335855
Li  5.9212619035  0.0575766805  13.6618105325
Li  6.0782145715  4.0927589775  9.7221720590
Mg  5.1044579880  5.5175391415  4.3271796555
Mg  2.0312574500  1.3608276250  6.8233896875
Mg  10.0935548600  6.8709514115  12.6209544305
6
scale = 1.90000
Li  10.1622167280  2.8482110550  5.9388182770
Li  6.0812960090  0.0591328070  14.0310486550
Li  6.2424906410  4.2033740850  9.9849334660
Mg  5.2424163120  5.6666618210  4.4441304570
Mg  2.0861563000  1.3976067500  7.0078056250
Mg  10.3663536400  7.0566528010  12.9620613070
6
scale = 1.95000
Li  10.4296434840  2.9231639775  6.0951029685
Li  6.2413301145  0.0606889335  14.4002867775
Li  6.4067667105  4.3139891925  10.2476948730
Mg  5.3803746360  5.8157845005  4.5610812585
Mg  2.1410551500  1.4343858750  7.1922215625
Mg  10.6391524200  7.2423541905  13.3031681835
6
scale = 2.00000
Li  10.6970702400  2.9981169000  6.2513876600
Li  6.4013642200  0.0622450600  14.7695249000
Li  6.5710427800  4.4246043000  10.5104562800
Mg  5.5183329600  5.9649071800  4.6780320600
Mg  2.1959540000  1.4711650000  7.3766375000
Mg  10.9119512000  7.4280555800  13.6442750600
6
scale = 2.05000
Li  10.9644969960  3.0730698225  6.4076723515
Li  6.5613983255  0.0638011865  15.1387630225
Li  6.7353188495  4.5352194075  10.7732176870
Mg  5.6562912840  6.1140298595  4.7949828615
Mg  2.2508528500  1.5079441250  7.5610534375
Mg  11.1847499800  7.6137569695  13.9853819365
6
scale = 2.10000
Li  11.2319237520  3.1480227450  6.5639570430
Li  6.7214324310  0.0653573130  15.5080011450
Li  6.8995949190  4.6458345150  11.0359790940
Mg  5.7942496080  6.2631525390  4.9119336630
Mg  2.3057517000  1.5447232500  7.7454693750
Mg  11.4575487600  7.7994583590  14.3264888130
6
scale = 2.15000
Li  11.4993505080  3.2229756675  6.7202417345
Li  6.8814665365  0.0669134395  15.8772392675
Li  7.0638709885  4.7564496225  11.2987405010
Mg  5.9322079320  6.4122752185  5.0288844645
Mg  2.3606505500  1.5815023750  7.9298853125
Mg  11.7303475400  7.9851597485  14.6675956895
6
scale = 2.20000
Li  11.7667772640  3.2979285900  6.8765264260
Li  7.0415006420  0.0684695660  16.2464773900
Li  7.2281470580  4.8670647300  11.5615019080
Mg  6.0701662560  6.5613978980  5.1458352660
Mg  2.4155494000  1.6182815000  8.1143012500
Mg  12.0031463200  8.1708611380  15.0087025660
6
scale = 2.25000
Li  12.0342040200  3.3728815125  7.0328111175
Li  7.2015347475  0.0700256925  16.6157155125
Li  7.3924231275  4.9776798375  11.8242633150
Mg  6.2081245800  6.7105205775  5.2627860675
Mg  2.4704482500  1.6550606250  8.2987171875
Mg  12.2759451000  8.3565625275  15.3498094425
6
scale = 2.30000
Li  12.3016307760  3.4478344350  7.1890958090
Li  7.3615688530  0.0715818190  16.9849536350
Li  7.5566991970  5.0882949450  12.0870247220
Mg  6.3460829040  6.8596432570  5.3797368690
Mg  2.5253471000  1.6918397500  8.4831331250
Mg  12.5487438800  8.5422639170  15.6909163190
6
scale = 2.35000
Li  12.5690575320  3.5227873575  7.3453805005
Li  7.5216029585  0.0731379455  17.3541917575
Li  7.7209752665  5.1989100525  12.3497861290
Mg  6.4840412280  7.0087659365  5.4966876705
Mg  2.5802459500  1.7286188750  8.6675490625
Mg  12.8215426600  8.7279653065  16.0320231955
6
scale = 2.40000
Li  12.8364842880  3.5977402800  7.5016651920
Li  7.6816370640  0.0746940720  17.7234298800
Li  7.8852513360  5.3095251600  12.6125475360
Mg  6.6219995520  7.1578886160  5.6136384720
Mg  2.6351448000  1.7653980000  8.8519650000
Mg  13.0943414400  8.9136666960  16.3731300720
6
scale = 2.45000
Li  13.1039110440  3.6726932025  7.6579498835
Li  7.8416711695  0.0762501985  18.0926680025
Li  8.0495274055  5.4201402675  12.8753089430
Mg  6.7599578760  7.3070112955  5.7305892735
Mg  2.6900436500  1.8021771250  9.0363809375
Mg  13.3671402200  9.0993680855  16.7142369485
