8
scale = 0.75000
Li  2.3648181525  1.3653283950  1.9157767875
Mg  0.0000049575  1.3647300825  1.9157767875
Mg  1.1829300600  3.4136160525  1.9157767875
Mg  -1.1829194400  3.4136160525  1.9157767875
Mg  3.5385607425  0.6876676650  0.0000000000
Mg  1.1910705975  0.6876676650  0.0000000000
Mg  2.3648160150  2.7206539575  0.0000000000
Mg  0.0000004650  2.7306567900  0.0000000000
8
scale = 0.80000
Li  2.5224726960  1.4563502880  2.0434952400
Mg  0.0000052880  1.4557120880  2.0434952400
Mg  1.2617920640  3.6411904560  2.0434952400
Mg  -1.2617807360  3.6411904560  2.0434952400
Mg  3.7744647920  0.7335121760  0.0000000000
Mg  1.2704753040  0.7335121760  0.0000000000
Mg  2.5224704160  2.9020308880  0.0000000000
Mg  0.0000004960  2.9127005760  0.0000000000
8
scale = 0.85000
Li  2.6801272395  1.5473721810  2.1712136925
Mg  0.0000056185  1.5466940935  2.1712136925
Mg  1.3406540680  3.8687648595  2.1712136925
Mg  -1.3406420320  3.8687648595  2.1712136925
Mg  4.0103688415  0.7793566870  0.0000000000
Mg  1.3498800105  0.7793566870  0.0000000000
Mg  2.6801248170  3.0834078185  0.0000000000
Mg  0.0000005270  3.0947443620  0.0000000000
8
scale = 0.90000
Li  2.8377817830  1.6383940740  2.2989321450
Mg  0.0000059490  1.6376760990  2.2989321450
Mg  1.4195160720  4.0963392630  2.2989321450
Mg  -1.4195033280  4.0963392630  2.2989321450
Mg  4.2462728910  0.8252011980  0.0000000000
Mg  1.4292847170  0.8252011980  0.0000000000
Mg  2.8377792180  3.2647847490  0.0000000000
Mg  0.0000005580  3.2767881480  0.0000000000
8
scale = 0.95000
Li  2.9954363265  1.7294159670  2.4266505975
Mg  0.0000062795  1.7286581045  2.4266505975
Mg  1.4983780760  4.3239136665  2.4266505975
Mg  -1.4983646240  4.3239136665  2.4266505975
Mg  4.4821769405  0.8710457090  0.0000000000
Mg  1.5086894235  0.8710457090  0.0000000000
Mg  2.9954336190  3.4461616795  0.0000000000
Mg  0.0000005890  3.4588319340  0.0000000000
8
scale = 1.00000
Li  3.1530908700  1.8204378600  2.5543690500
Mg  0.0000066100  1.8196401100  2.5543690500
Mg  1.5772400800  4.5514880700  2.5543690500
Mg  -1.5772259200  4.5514880700  2.5543690500
Mg  4.7180809900  0.9168902200  0.0000000000
Mg  1.5880941300  0.9168902200  0.0000000000
Mg  3.1530880200  3.6275386100  0.0000000000
Mg  0.0000006200  3.6408757200  0.0000000000
8
scale = 1.05000
Li  3.3107454135  1.9114597530  2.6820875025
Mg  0.0000069405  1.9106221155  2.6820875025
Mg  1.6561020840  4.7790624735  2.6820875025
Mg  -1.6560872160  4.7790624735  2.6820875025
Mg  4.9539850395  0.9627347310  0.0000000000
Mg  1.6674988365  0.9627347310  0.0000000000
Mg  3.3107424210  3.8089155405  0.0000000000
Mg  0.0000006510  3.8229195060  0.0000000000
8
scale = 1.10000
Li  3.4683999570  2.0024816460  2.8098059550
Mg  0.0000072710  2.0016041210  2.8098059550
Mg  1.7349640880  5.0066368770  2.8098059550
Mg  -1.7349485120  5.0066368770  2.8098059550
Mg  5.1898890890  1.0085792420  0.0000000000
Mg  1.7469035430  1.0085792420  0.0000000000
Mg  3.4683968220  3.9902924710  0.0000000000
Mg  0.0000006820  4.0049632920  0.0000000000
8
scale = 1.15000
Li  3.6260545005  2.0935035390  2.9375244075
Mg  0.0000076015  2.0925861265  2.9375244075
Mg  1.8138260920  5.2342112805  2.9375244075
Mg  -1.8138098080  5.2342112805  2.9375244075
Mg  5.4257931385  1.0544237530  0.0000000000
Mg  1.8263082495  1.0544237530  0.0000000000
Mg  3.6260512230  4.1716694015  0.0000000000
Mg  0.0000007130  4.1870070780  0.0000000000
8
scale = 1.20000
Li  3.7837090440  2.1845254320  3.0652428600
Mg  0.0000079320  2.1835681320  3.0652428600
Mg  1.8926880960  5.4617856840  3.0652428600
Mg  -1.8926711040  5.4617856840  3.0652428600
Mg  5.6616971880  1.1002682640  0.0000000000
Mg  1.9057129560  1.1002682640  0.0000000000
Mg  3.7837056240  4.3530463320  0.0000000000
Mg  0.0000007440  4.3690508640  0.0000000000
8
scale = 1.25000
Li  3.9413635875  2.2755473250  3.1929613125
Mg  0.0000082625  2.2745501375  3.1929613125
Mg  1.9715501000  5.6893600875  3.1929613125
Mg  -1.9715324000  5.6893600875  3.1929613125
Mg  5.8976012375  1.1461127750  0.0000000000
Mg  1.9851176625  1.1461127750  0.0000000000
Mg  3.9413600250  4.5344232625  0.0000000000
Mg  0.0000007750  4.5510946500  0.0000000000
8
scale = 1.30000
Li  4.0990181310  2.3665692180  3.3206797650
Mg  0.0000085930  2.3655321430  3.3206797650
Mg  2.0504121040  5.9169344910  3.3206797650
Mg  -2.0503936960  5.9169344910  3.3206797650
Mg  6.1335052870  1.1919572860  0.0000000000
Mg  2.0645223690  1.1919572860  0.0000000000
Mg  4.0990144260  4.7158001930  0.0000000000
Mg  0.0000008060  4.7331384360  0.0000000000
8
scale = 1.35000
Li  4.2566726745  2.4575911110  3.4483982175
Mg  0.0000089235  2.4565141485  3.4483982175
Mg  2.1292741080  6.1445088945  3.4483982175
Mg  -2.1292549920  6.1445088945  3.4483982175
Mg  6.3694093365  1.2378017970  0.0000000000
Mg  2.1439270755  1.2378017970  0.0000000000
Mg  4.2566688270  4.8971771235  0.0000000000
Mg  0.0000008370  4.9151822220  0.0000000000
8
scale = 1.40000
Li  4.4143272180  2.5486130040  3.5761166700
Mg  0.0000092540  2.5474961540  3.5761166700
Mg  2.2081361120  6.3720832980  3.5761166700
Mg  -2.2081162880  6.3720832980  3.5761166700
Mg  6.6053133860  1.2836463080  0.0000000000
Mg  2.2233317820  1.2836463080  0.0000000000
Mg  4.4143232280  5.0785540540  0.0000000000
Mg  0.0000008680  5.0972260080  0.0000000000
8
scale = 1.45000
Li  4.5719817615  2.6396348970  3.7038351225
Mg  0.0000095845  2.6384781595  3.7038351225
Mg  2.2869981160  6.5996577015  3.7038351225
Mg  -2.2869775840  6.5996577015  3.7038351225
Mg  6.8412174355  1.3294908190  0.0000000000
Mg  2.3027364885  1.3294908190  0.0000000000
Mg  4.5719776290  5.2599309845  0.0000000000
Mg  0.0000008990  5.2792697940  0.0000000000
8
scale = 1.50000
Li  4.7296363050  2.7306567900  3.8315535750
Mg  0.0000099150  2.7294601650  3.8315535750
Mg  2.3658601200  6.8272321050  3.8315535750
Mg  -2.3658388800  6.8272321050  3.8315535750
Mg  7.0771214850  1.3753353300  0.0000000000
Mg  2.3821411950  1.3753353300  0.0000000000
Mg  4.7296320300  5.4413079150  0.0000000000
Mg  0.0000009300  5.4613135800  0.0000000000
8
scale = 1.55000
Li  4.8872908485  2.8216786830  3.9592720275
Mg  0.0000102455  2.8204421705  3.9592720275
Mg  2.4447221240  7.0548065085  3.9592720275
Mg  -2.4447001760  7.0548065085  3.9592720275
Mg  7.3130255345  1.4211798410  0.0000000000
Mg  2.4615459015  1.4211798410  0.0000000000
Mg  4.8872864310  5.6226848455  0.0000000000
Mg  0.0000009610  5.6433573660  0.0000000000
8
scale = 1.60000
Li  5.0449453920  2.9127005760  4.0869904800
Mg  0.0000105760  2.9114241760  4.0869904800
Mg  2.5235841280  7.2823809120  4.0869904800
Mg  -2.5235614720  7.2823809120  4.0869904800
Mg  7.5489295840  1.4670243520  0.0000000000
Mg  2.5409506080  1.4670243520  0.0000000000
Mg  5.0449408320  5.8040617760  0.0000000000
Mg  0.0000009920  5.8254011520  0.0000000000
8
scale = 1.65000
Li  5.2025999355  3.0037224690  4.2147089325
Mg  0.0000109065  3.0024061815  4.2147089325
Mg  2.6024461320  7.5099553155  4.2147089325
Mg  -2.6024227680  7.5099553155  4.2147089325
Mg  7.7848336335  1.5128688630  0.0000000000
Mg  2.6203553145  1.5128688630  0.0000000000
Mg  5.2025952330  5.9854387065  0.0000000000
Mg  0.0000010230  6.0074449380  0.0000000000
8
scale = 1.70000
Li  5.3602544790  3.0947443620  4.3424273850
Mg  0.0000112370  3.0933881870  4.3424273850
Mg  2.6813081360  7.7375297190  4.3424273850
Mg  -2.6812840640  7.7375297190  4.3424273850
Mg  8.0207376830  1.5587133740  0.0000000000
Mg  2.6997600210  1.5587133740  0.0000000000
Mg  5.3602496340  6.1668156370  0.0000000000
Mg  0.0000010540  6.1894887240  0.0000000000
8
scale = 1.75000
Li  5.5179090225  3.1857662550  4.4701458375
Mg  0.0000115675  3.1843701925  4.4701458375
Mg  2.7601701400  7.9651041225  4.4701458375
Mg  -2.7601453600  7.9651041225  4.4701458375
Mg  8.2566417325  1.6045578850  0.0000000000
Mg  2.7791647275  1.6045578850  0.0000000000
Mg  5.5179040350  6.3481925675  0.0000000000
Mg  0.0000010850  6.3715325100  0.0000000000
8
scale = 1.80000
Li  5.6755635660  3.2767881480  4.5978642900
Mg  0.0000118980  3.2753521980  4.5978642900
Mg  2.8390321440  8.1926785260  4.5978642900
Mg  -2.8390066560  8.1926785260  4.5978642900
Mg  8.4925457820  1.6504023960  0.0000000000
Mg  2.8585694340  1.6504023960  0.0000000000
Mg  5.6755584360  6.5295694980  0.0000000000
Mg  0.0000011160  6.5535762960  0.0000000000
8
scale = 1.85000
Li  5.8332181095  3.3678100410  4.7255827425
Mg  0.0000122285  3.3663342035  4.7255827425
Mg  2.9178941480  8.4202529295  4.7255827425
Mg  -2.9178679520  8.4202529295  4.7255827425
Mg  8.7284498315  1.6962469070  0.0000000000
Mg  2.9379741405  1.6962469070  0.0000000000
Mg  5.8332128370  6.7109464285  0.0000000000
Mg  0.0000011470  6.7356200820  0.0000000000
8
scale = 1.90000
Li  5.9908726530  3.4588319340  4.8533011950
Mg  0.0000125590  3.4573162090  4.8533011950
Mg  2.9967561520  8.6478273330  4.8533011950
Mg  -2.9967292480  8.6478273330  4.8533011950
Mg  8.9643538810  1.7420914180  0.0000000000
Mg  3.0173788470  1.7420914180  0.0000000000
Mg  5.9908672380  6.8923233590  0.0000000000
Mg  0.0000011780  6.9176638680  0.0000000000
8
scale = 1.95000
Li  6.1485271965  3.5498538270  4.9810196475
Mg  0.0000128895  3.5482982145  4.9810196475
Mg  3.0756181560  8.8754017365  4.9810196475
Mg  -3.0755905440  8.8754017365  4.9810196475
Mg  9.2002579305  1.7879359290  0.0000000000
Mg  3.0967835535  1.7879359290  0.0000000000
Mg  6.1485216390  7.0737002895  0.0000000000
Mg  0.0000012090  7.0997076540  0.0000000000
8
scale = 2.00000
Li  6.3061817400  3.6408757200  5.1087381000
Mg  0.0000132200  3.6392802200  5.1087381000
Mg  3.1544801600  9.1029761400  5.1087381000
Mg  -3.1544518400  9.1029761400  5.1087381000
Mg  9.4361619800  1.8337804400  0.0000000000
Mg  3.1761882600  1.8337804400  0.0000000000
Mg  6.3061760400  7.2550772200  0.0000000000
Mg  0.0000012400  7.2817514400  0.0000000000
8
scale = 2.05000
Li  6.4638362835  3.7318976130  5.2364565525
Mg  0.0000135505  3.7302622255  5.2364565525
Mg  3.2333421640  9.3305505435  5.2364565525
Mg  -3.2333131360  9.3305505435  5.2364565525
Mg  9.6720660295  1.8796249510  0.0000000000
Mg  3.2555929665  1.8796249510  0.0000000000
Mg  6.4638304410  7.4364541505  0.0000000000
Mg  0.0000012710  7.4637952260  0.0000000000
8
scale = 2.10000
Li  6.6214908270  3.8229195060  5.3641750050
Mg  0.0000138810  3.8212442310  5.3641750050
Mg  3.3122041680  9.5581249470  5.3641750050
Mg  -3.3121744320  9.5581249470  5.3641750050
Mg  9.9079700790  1.9254694620  0.0000000000
Mg  3.3349976730  1.9254694620  0.0000000000
Mg  6.6214848420  7.6178310810  0.0000000000
Mg  0.0000013020  7.6458390120  0.0000000000
8
scale = 2.15000
Li  6.7791453705  3.9139413990  5.4918934575
Mg  0.0000142115  3.9122262365  5.4918934575
Mg  3.3910661720  9.7856993505  5.4918934575
Mg  -3.3910357280  9.7856993505  5.4918934575
Mg  10.1438741285  1.9713139730  0.0000000000
Mg  3.4144023795  1.9713139730  0.0000000000
Mg  6.7791392430  7.7992080115  0.0000000000
Mg  0.0000013330  7.8278827980  0.0000000000
8
scale = 2.20000
Li  6.9367999140  4.0049632920  5.6196119100
Mg  0.0000145420  4.0032082420  5.6196119100
Mg  3.4699281760  10.0132737540  5.6196119100
Mg  -3.4698970240  10.0132737540  5.6196119100
Mg  10.3797781780  2.0171584840  0.0000000000
Mg  3.4938070860  2.0171584840  0.0000000000
Mg  6.9367936440  7.9805849420  0.0000000000
Mg  0.0000013640  8.0099265840  0.0000000000
8
scale = 2.25000
Li  7.0944544575  4.0959851850  5.7473303625
Mg  0.0000148725  4.0941902475  5.7473303625
Mg  3.5487901800  10.2408481575  5.7473303625
Mg  -3.5487583200  10.2408481575  5.7473303625
Mg  10.6156822275  2.0630029950  0.0000000000
Mg  3.5732117925  2.0630029950  0.0000000000
Mg  7.0944480450  8.1619618725  0.0000000000
Mg  0.0000013950  8.1919703700  0.0000000000
8
scale = 2.30000
Li  7.2521090010  4.1870070780  5.8750488150
Mg  0.0000152030  4.1851722530  5.8750488150
Mg  3.6276521840  10.4684225610  5.8750488150
Mg  -3.6276196160  10.4684225610  5.8750488150
Mg  10.8515862770  2.1088475060  0.0000000000
Mg  3.6526164990  2.1088475060  0.0000000000
Mg  7.2521024460  8.3433388030  0.0000000000
Mg  0.0000014260  8.3740141560  0.0000000000
8
scale = 2.35000
Li  7.4097635445  4.2780289710  6.0027672675
Mg  0.0000155335  4.2761542585  6.0027672675
Mg  3.7065141880  10.6959969645  6.0027672675
Mg  -3.7064809120  10.6959969645  6.0027672675
Mg  11.0874903265  2.1546920170  0.0000000000
Mg  3.7320212055  2.1546920170  0.0000000000
Mg  7.4097568470  8.5247157335  0.0000000000
Mg  0.0000014570  8.5560579420  0.0000000000
8
scale = 2.40000
Li  7.5674180880  4.3690508640  6.1304857200
Mg  0.0000158640  4.3671362640  6.1304857200
Mg  3.7853761920  10.9235713680  6.1304857200
Mg  -3.7853422080  10.9235713680  6.1304857200
Mg  11.3233943760  2.2005365280  0.0000000000
Mg  3.8114259120  2.2005365280  0.0000000000
Mg  7.5674112480  8.7060926640  0.0000000000
Mg  0.0000014880  8.7381017280  0.0000000000
8
scale = 2.45000
Li  7.7250726315  4.4600727570  6.2582041725
Mg  0.0000161945  4.4581182695  6.2582041725
Mg  3.8642381960  11.1511457715  6.2582041725
Mg  -3.8642035040  11.1511457715  6.2582041725
Mg  11.5592984255  2.2463810390  0.0000000000
Mg  3.8908306185  2.2463810390  0.0000000000
Mg  7.7250656490  8.8874695945  0.0000000000
Mg  0.0000015190  8.9201455140  0.0000000000
