6
scale = 0.75000
Li  0.6768598725  1.1659194675  0.0000000000
Li  2.0189214675  1.1675144850  1.8816528375
Li  0.0127705725  2.3321601300  1.8816528375
Mg  0.6677648400  3.4875130200  0.0000000000
Mg  2.6974475775  2.3092062600  0.0000000000
Mg  0.0111591675  0.0192221325  1.8816528375
6
scale = 0.80000
Li  0.7219838640  1.2436474320  0.0000000000
Li  2.1535162320  1.2453487840  2.0070963600
Li  0.0136219440  2.4876374720  2.0070963600
Mg  0.7122824960  3.7200138880  0.0000000000
Mg  2.8772774160  2.4631533440  0.0000000000
Mg  0.0119031120  0.0205036080  2.0070963600
6
scale = 0.85000
Li  0.7671078555  1.3213753965  0.0000000000
Li  2.2881109965  1.3231830830  2.1325398825
Li  0.0144733155  2.6431148140  2.1325398825
Mg  0.7568001520  3.9525147560  0.0000000000
Mg  3.0571072545  2.6171004280  0.0000000000
Mg  0.0126470565  0.0217850835  2.1325398825
6
scale = 0.90000
Li  0.8122318470  1.3991033610  0.0000000000
Li  2.4227057610  1.4010173820  2.2579834050
Li  0.0153246870  2.7985921560  2.2579834050
Mg  0.8013178080  4.1850156240  0.0000000000
Mg  3.2369370930  2.7710475120  0.0000000000
Mg  0.0133910010  0.0230665590  2.2579834050
6
scale = 0.95000
Li  0.8573558385  1.4768313255  0.0000000000
Li  2.5573005255  1.4788516810  2.3834269275
Li  0.0161760585  2.9540694980  2.3834269275
Mg  0.8458354640  4.4175164920  0.0000000000
Mg  3.4167669315  2.9249945960  0.0000000000
Mg  0.0141349455  0.0243480345  2.3834269275
6
scale = 1.00000
Li  0.9024798300  1.5545592900  0.0000000000
Li  2.6918952900  1.5566859800  2.5088704500
Li  0.0170274300  3.1095468400  2.5088704500
Mg  0.8903531200  4.6500173600  0.0000000000
Mg  3.5965967700  3.0789416800  0.0000000000
Mg  0.0148788900  0.0256295100  2.5088704500
6
scale = 1.05000
Li  0.9476038215  1.6322872545  0.0000000000
Li  2.8264900545  1.6345202790  2.6343139725
Li  0.0178788015  3.2650241820  2.6343139725
Mg  0.9348707760  4.8825182280  0.0000000000
Mg  3.7764266085  3.2328887640  0.0000000000
Mg  0.0156228345  0.0269109855  2.6343139725
6
scale = 1.10000
Li  0.9927278130  1.7100152190  0.0000000000
Li  2.9610848190  1.7123545780  2.7597574950
Li  0.0187301730  3.4205015240  2.7597574950
Mg  0.9793884320  5.1150190960  0.0000000000
Mg  3.9562564470  3.3868358480  0.0000000000
Mg  0.0163667790  0.0281924610  2.7597574950
6
scale = 1.15000
Li  1.0378518045  1.7877431835  0.0000000000
Li  3.0956795835  1.7901888770  2.8852010175
Li  0.0195815445  3.5759788660  2.8852010175
Mg  1.0239060880  5.3475199640  0.0000000000
Mg  4.1360862855  3.5407829320  0.0000000000
Mg  0.0171107235  0.0294739365  2.8852010175
6
scale = 1.20000
Li  1.0829757960  1.8654711480  0.0000000000
Li  3.2302743480  1.8680231760  3.0106445400
Li  0.0204329160  3.7314562080  3.0106445400
Mg  1.0684237440  5.5800208320  0.0000000000
Mg  4.3159161240  3.6947300160  0.0000000000
Mg  0.0178546680  0.0307554120  3.0106445400
6
scale = 1.25000
Li  1.1280997875  1.9431991125  0.0000000000
Li  3.3648691125  1.9458574750  3.1360880625
Li  0.0212842875  3.8869335500  3.1360880625
Mg  1.1129414000  5.8125217000  0.0000000000
Mg  4.4957459625  3.8486771000  0.0000000000
Mg  0.0185986125  0.0320368875  3.1360880625
6
scale = 1.30000
Li  1.1732237790  2.0209270770  0.0000000000
Li  3.4994638770  2.0236917740  3.2615315850
Li  0.0221356590  4.0424108920  3.2615315850
Mg  1.1574590560  6.0450225680  0.0000000000
Mg  4.6755758010  4.0026241840  0.0000000000
Mg  0.0193425570  0.0333183630  3.2615315850
6
scale = 1.35000
Li  1.2183477705  2.0986550415  0.0000000000
Li  3.6340586415  2.1015260730  3.3869751075
Li  0.0229870305  4.1978882340  3.3869751075
Mg  1.2019767120  6.2775234360  0.0000000000
Mg  4.8554056395  4.1565712680  0.0000000000
Mg  0.0200865015  0.0345998385  3.3869751075
6
scale = 1.40000
Li  1.2634717620  2.1763830060  0.0000000000
Li  3.7686534060  2.1793603720  3.5124186300
Li  0.0238384020  4.3533655760  3.5124186300
Mg  1.2464943680  6.5100243040  0.0000000000
Mg  5.0352354780  4.3105183520  0.0000000000
Mg  0.0208304460  0.0358813140  3.5124186300
6
scale = 1.45000
Li  1.3085957535  2.2541109705  0.0000000000
Li  3.9032481705  2.2571946710  3.6378621525
Li  0.0246897735  4.5088429180  3.6378621525
Mg  1.2910120240  6.7425251720  0.0000000000
Mg  5.2150653165  4.4644654360  0.0000000000
Mg  0.0215743905  0.0371627895  3.6378621525
6
scale = 1.50000
Li  1.3537197450  2.3318389350  0.0000000000
Li  4.0378429350  2.3350289700  3.7633056750
Li  0.0255411450  4.6643202600  3.7633056750
Mg  1.3355296800  6.9750260400  0.0000000000
Mg  5.3948951550  4.6184125200  0.0000000000
Mg  0.0223183350  0.0384442650  3.7633056750
6
scale = 1.55000
Li  1.3988437365  2.4095668995  0.0000000000
Li  4.1724376995  2.4128632690  3.8887491975
Li  0.0263925165  4.8197976020  3.8887491975
Mg  1.3800473360  7.2075269080  0.0000000000
Mg  5.5747249935  4.7723596040  0.0000000000
Mg  0.0230622795  0.0397257405  3.8887491975
6
scale = 1.60000
Li  1.4439677280  2.4872948640  0.0000000000
Li  4.3070324640  2.4906975680  4.0141927200
Li  0.0272438880  4.9752749440  4.0141927200
Mg  1.4245649920  7.4400277760  0.0000000000
Mg  5.7545548320  4.9263066880  0.0000000000
Mg  0.0238062240  0.0410072160  4.0141927200
6
scale = 1.65000
Li  1.4890917195  2.5650228285  0.0000000000
Li  4.4416272285  2.5685318670  4.1396362425
Li  0.0280952595  5.1307522860  4.1396362425
Mg  1.4690826480  7.6725286440  0.0000000000
Mg  5.9343846705  5.0802537720  0.0000000000
Mg  0.0245501685  0.0422886915  4.1396362425
6
scale = 1.70000
Li  1.5342157110  2.6427507930  0.0000000000
Li  4.5762219930  2.6463661660  4.2650797650
Li  0.0289466310  5.2862296280  4.2650797650
Mg  1.5136003040  7.9050295120  0.0000000000
Mg  6.1142145090  5.2342008560  0.0000000000
Mg  0.0252941130  0.0435701670  4.2650797650
6
scale = 1.75000
Li  1.5793397025  2.7204787575  0.0000000000
Li  4.7108167575  2.7242004650  4.3905232875
Li  0.0297980025  5.4417069700  4.3905232875
Mg  1.5581179600  8.1375303800  0.0000000000
Mg  6.2940443475  5.3881479400  0.0000000000
Mg  0.0260380575  0.0448516425  4.3905232875
6
scale = 1.80000
Li  1.6244636940  2.7982067220  0.0000000000
Li  4.8454115220  2.8020347640  4.5159668100
Li  0.0306493740  5.5971843120  4.5159668100
Mg  1.6026356160  8.3700312480  0.0000000000
Mg  6.4738741860  5.5420950240  0.0000000000
Mg  0.0267820020  0.0461331180  4.5159668100
6
scale = 1.85000
Li  1.6695876855  2.8759346865  0.0000000000
Li  4.9800062865  2.8798690630  4.6414103325
Li  0.0315007455  5.7526616540  4.6414103325
Mg  1.6471532720  8.6025321160  0.0000000000
Mg  6.6537040245  5.6960421080  0.0000000000
Mg  0.0275259465  0.0474145935  4.6414103325
6
scale = 1.90000
Li  1.7147116770  2.9536626510  0.0000000000
Li  5.1146010510  2.9577033620  4.7668538550
Li  0.0323521170  5.9081389960  4.7668538550
Mg  1.6916709280  8.8350329840  0.0000000000
Mg  6.8335338630  5.8499891920  0.0000000000
Mg  0.0282698910  0.0486960690  4.7668538550
6
scale = 1.95000
Li  1.7598356685  3.0313906155  0.0000000000
Li  5.2491958155  3.0355376610  4.8922973775
Li  0.0332034885  6.0636163380  4.8922973775
Mg  1.7361885840  9.0675338520  0.0000000000
Mg  7.0133637015  6.0039362760  0.0000000000
Mg  0.0290138355  0.0499775445  4.8922973775
6
scale = 2.00000
Li  1.8049596600  3.1091185800  0.0000000000
Li  5.3837905800  3.1133719600  5.0177409000
Li  0.0340548600  6.2190936800  5.0177409000
Mg  1.7807062400  9.3000347200  0.0000000000
Mg  7.1931935400  6.1578833600  0.0000000000
Mg  0.0297577800  0.0512590200  5.0177409000
6
scale = 2.05000
Li  1.8500836515  3.1868465445  0.0000000000
Li  5.5183853445  3.1912062590  5.1431844225
Li  0.0349062315  6.3745710220  5.1431844225
Mg  1.8252238960  9.5325355880  0.0000000000
Mg  7.3730233785  6.3118304440  0.0000000000
Mg  0.0305017245  0.0525404955  5.1431844225
6
scale = 2.10000
Li  1.8952076430  3.2645745090  0.0000000000
Li  5.6529801090  3.2690405580  5.2686279450
Li  0.0357576030  6.5300483640  5.2686279450
Mg  1.8697415520  9.7650364560  0.0000000000
Mg  7.5528532170  6.4657775280  0.0000000000
Mg  0.0312456690  0.0538219710  5.2686279450
6
scale = 2.15000
Li  1.9403316345  3.3423024735  0.0000000000
Li  5.7875748735  3.3468748570  5.3940714675
Li  0.0366089745  6.6855257060  5.3940714675
Mg  1.9142592080  9.9975373240  0.0000000000
Mg  7.7326830555  6.6197246120  0.0000000000
Mg  0.0319896135  0.0551034465  5.3940714675
6
scale = 2.20000
Li  1.9854556260  3.4200304380  0.0000000000
Li  5.9221696380  3.4247091560  5.5195149900
Li  0.0374603460  6.8410030480  5.5195149900
Mg  1.9587768640  10.2300381920  0.0000000000
Mg  7.9125128940  6.7736716960  0.0000000000
Mg  0.0327335580  0.0563849220  5.5195149900
6
scale = 2.25000
Li  2.0305796175  3.4977584025  0.0000000000
Li  6.0567644025  3.5025434550  5.6449585125
Li  0.0383117175  6.9964803900  5.6449585125
Mg  2.0032945200  10.4625390600  0.0000000000
Mg  8.0923427325  6.9276187800  0.0000000000
Mg  0.0334775025  0.0576663975  5.6449585125
6
scale = 2.30000
Li  2.0757036090  3.5754863670  0.0000000000
Li  6.1913591670  3.5803777540  5.7704020350
Li  0.0391630890  7.1519577320  5.7704020350
Mg  2.0478121760  10.6950399280  0.0000000000
Mg  8.2721725710  7.0815658640  0.0000000000
Mg  0.0342214470  0.0589478730  5.7704020350
6
scale = 2.35000
Li  2.1208276005  3.6532143315  0.0000000000
Li  6.3259539315  3.6582120530  5.8958455575
Li  0.0400144605  7.3074350740  5.8958455575
Mg  2.0923298320  10.9275407960  0.0000000000
Mg  8.4520024095  7.2355129480  0.0000000000
Mg  0.0349653915  0.0602293485  5.8958455575
6
scale = 2.40000
Li  2.1659515920  3.7309422960  0.0000000000
Li  6.4605486960  3.7360463520  6.0212890800
Li  0.0408658320  7.4629124160  6.0212890800
Mg  2.1368474880  11.1600416640  0.0000000000
Mg  8.6318322480  7.3894600320  0.0000000000
Mg  0.0357093360  0.0615108240  6.0212890800
6
scale = 2.45000
Li  2.2110755835  3.8086702605  0.0000000000
Li  6.5951434605  3.8138806510  6.1467326025
Li  0.0417172035  7.6183897580  6.1467326025
Mg  2.1813651440  11.3925425320  0.0000000000
Mg  8.8116620865  7.5434071160  0.0000000000
Mg  0.0364532805  0.0627922995  6.1467326025
