6
scale = 0.75000
Li  0.8232417300  0.5592006600  1.6055660700
Li  4.1291017725  2.8047611850  8.0529757875
Mg  1.1956668225  0.0000000000  3.8434137450
Mg  2.8636787625  1.1115024450  2.6010295500
Mg  2.4761717550  1.6819809225  4.8292709325
Mg  0.8929979175  2.2524594000  3.2140985700
6
scale = 0.80000
Li  0.8781245120  0.5964807040  1.7126038080
Li  4.4043752240  2.9917452640  8.5898408400
Mg  1.2753779440  0.0000000000  4.0996413280
Mg  3.0545906800  1.1856026080  2.7744315200
Mg  2.6412498720  1.7941129840  5.1512223280
Mg  0.9525311120  2.4026233600  3.4283718080
6
scale = 0.85000
Li  0.9330072940  0.6337607480  1.8196415460
Li  4.6796486755  3.1787293430  9.1267058925
Mg  1.3550890655  0.0000000000  4.3558689110
Mg  3.2455025975  1.2597027710  2.9478334900
Mg  2.8063279890  1.9062450455  5.4731737235
Mg  1.0120643065  2.5527873200  3.6426450460
6
scale = 0.90000
Li  0.9878900760  0.6710407920  1.9266792840
Li  4.9549221270  3.3657134220  9.6635709450
Mg  1.4348001870  0.0000000000  4.6120964940
Mg  3.4364145150  1.3338029340  3.1212354600
Mg  2.9714061060  2.0183771070  5.7951251190
Mg  1.0715975010  2.7029512800  3.8569182840
6
scale = 0.95000
Li  1.0427728580  0.7083208360  2.0337170220
Li  5.2301955785  3.5526975010  10.2004359975
Mg  1.5145113085  0.0000000000  4.8683240770
Mg  3.6273264325  1.4079030970  3.2946374300
Mg  3.1364842230  2.1305091685  6.1170765145
Mg  1.1311306955  2.8531152400  4.0711915220
6
scale = 1.00000
Li  1.0976556400  0.7456008800  2.1407547600
Li  5.5054690300  3.7396815800  10.7373010500
Mg  1.5942224300  0.0000000000  5.1245516600
Mg  3.8182383500  1.4820032600  3.4680394000
Mg  3.3015623400  2.2426412300  6.4390279100
Mg  1.1906638900  3.0032792000  4.2854647600
6
scale = 1.05000
Li  1.1525384220  0.7828809240  2.2477924980
Li  5.7807424815  3.9266656590  11.2741661025
Mg  1.6739335515  0.0000000000  5.3807792430
Mg  4.0091502675  1.5561034230  3.6414413700
Mg  3.4666404570  2.3547732915  6.7609793055
Mg  1.2501970845  3.1534431600  4.4997379980
6
scale = 1.10000
Li  1.2074212040  0.8201609680  2.3548302360
Li  6.0560159330  4.1136497380  11.8110311550
Mg  1.7536446730  0.0000000000  5.6370068260
Mg  4.2000621850  1.6302035860  3.8148433400
Mg  3.6317185740  2.4669053530  7.0829307010
Mg  1.3097302790  3.3036071200  4.7140112360
6
scale = 1.15000
Li  1.2623039860  0.8574410120  2.4618679740
Li  6.3312893845  4.3006338170  12.3478962075
Mg  1.8333557945  0.0000000000  5.8932344090
Mg  4.3909741025  1.7043037490  3.9882453100
Mg  3.7967966910  2.5790374145  7.4048820965
Mg  1.3692634735  3.4537710800  4.9282844740
6
scale = 1.20000
Li  1.3171867680  0.8947210560  2.5689057120
Li  6.6065628360  4.4876178960  12.8847612600
Mg  1.9130669160  0.0000000000  6.1494619920
Mg  4.5818860200  1.7784039120  4.1616472800
Mg  3.9618748080  2.6911694760  7.7268334920
Mg  1.4287966680  3.6039350400  5.1425577120
6
scale = 1.25000
Li  1.3720695500  0.9320011000  2.6759434500
Li  6.8818362875  4.6746019750  13.4216263125
Mg  1.9927780375  0.0000000000  6.4056895750
Mg  4.7727979375  1.8525040750  4.3350492500
Mg  4.1269529250  2.8033015375  8.0487848875
Mg  1.4883298625  3.7540990000  5.3568309500
6
scale = 1.30000
Li  1.4269523320  0.9692811440  2.7829811880
Li  7.1571097390  4.8615860540  13.9584913650
Mg  2.0724891590  0.0000000000  6.6619171580
Mg  4.9637098550  1.9266042380  4.5084512200
Mg  4.2920310420  2.9154335990  8.3707362830
Mg  1.5478630570  3.9042629600  5.5711041880
6
scale = 1.35000
Li  1.4818351140  1.0065611880  2.8900189260
Li  7.4323831905  5.0485701330  14.4953564175
Mg  2.1522002805  0.0000000000  6.9181447410
Mg  5.1546217725  2.0007044010  4.6818531900
Mg  4.4571091590  3.0275656605  8.6926876785
Mg  1.6073962515  4.0544269200  5.7853774260
6
scale = 1.40000
Li  1.5367178960  1.0438412320  2.9970566640
Li  7.7076566420  5.2355542120  15.0322214700
Mg  2.2319114020  0.0000000000  7.1743723240
Mg  5.3455336900  2.0748045640  4.8552551600
Mg  4.6221872760  3.1396977220  9.0146390740
Mg  1.6669294460  4.2045908800  5.9996506640
6
scale = 1.45000
Li  1.5916006780  1.0811212760  3.1040944020
Li  7.9829300935  5.4225382910  15.5690865225
Mg  2.3116225235  0.0000000000  7.4305999070
Mg  5.5364456075  2.1489047270  5.0286571300
Mg  4.7872653930  3.2518297835  9.3365904695
Mg  1.7264626405  4.3547548400  6.2139239020
6
scale = 1.50000
Li  1.6464834600  1.1184013200  3.2111321400
Li  8.2582035450  5.6095223700  16.1059515750
Mg  2.3913336450  0.0000000000  7.6868274900
Mg  5.7273575250  2.2230048900  5.2020591000
Mg  4.9523435100  3.3639618450  9.6585418650
Mg  1.7859958350  4.5049188000  6.4281971400
6
scale = 1.55000
Li  1.7013662420  1.1556813640  3.3181698780
Li  8.5334769965  5.7965064490  16.6428166275
Mg  2.4710447665  0.0000000000  7.9430550730
Mg  5.9182694425  2.2971050530  5.3754610700
Mg  5.1174216270  3.4760939065  9.9804932605
Mg  1.8455290295  4.6550827600  6.6424703780
6
scale = 1.60000
Li  1.7562490240  1.1929614080  3.4252076160
Li  8.8087504480  5.9834905280  17.1796816800
Mg  2.5507558880  0.0000000000  8.1992826560
Mg  6.1091813600  2.3712052160  5.5488630400
Mg  5.2824997440  3.5882259680  10.3024446560
Mg  1.9050622240  4.8052467200  6.8567436160
6
scale = 1.65000
Li  1.8111318060  1.2302414520  3.5322453540
Li  9.0840238995  6.1704746070  17.7165467325
Mg  2.6304670095  0.0000000000  8.4555102390
Mg  6.3000932775  2.4453053790  5.7222650100
Mg  5.4475778610  3.7003580295  10.6243960515
Mg  1.9645954185  4.9554106800  7.0710168540
6
scale = 1.70000
Li  1.8660145880  1.2675214960  3.6392830920
Li  9.3592973510  6.3574586860  18.2534117850
Mg  2.7101781310  0.0000000000  8.7117378220
Mg  6.4910051950  2.5194055420  5.8956669800
Mg  5.6126559780  3.8124900910  10.9463474470
Mg  2.0241286130  5.1055746400  7.2852900920
6
scale = 1.75000
Li  1.9208973700  1.3048015400  3.7463208300
Li  9.6345708025  6.5444427650  18.7902768375
Mg  2.7898892525  0.0000000000  8.9679654050
Mg  6.6819171125  2.5935057050  6.0690689500
Mg  5.7777340950  3.9246221525  11.2682988425
Mg  2.0836618075  5.2557386000  7.4995633300
6
scale = 1.80000
Li  1.9757801520  1.3420815840  3.8533585680
Li  9.9098442540  6.7314268440  19.3271418900
Mg  2.8696003740  0.0000000000  9.2241929880
Mg  6.8728290300  2.6676058680  6.2424709200
Mg  5.9428122120  4.0367542140  11.5902502380
Mg  2.1431950020  5.4059025600  7.7138365680
6
scale = 1.85000
Li  2.0306629340  1.3793616280  3.9603963060
Li  10.1851177055  6.9184109230  19.8640069425
Mg  2.9493114955  0.0000000000  9.4804205710
Mg  7.0637409475  2.7417060310  6.4158728900
Mg  6.1078903290  4.1488862755  11.9122016335
Mg  2.2027281965  5.5560665200  7.9281098060
6
scale = 1.90000
Li  2.0855457160  1.4166416720  4.0674340440
Li  10.4603911570  7.1053950020  20.4008719950
Mg  3.0290226170  0.0000000000  9.7366481540
Mg  7.2546528650  2.8158061940  6.5892748600
Mg  6.2729684460  4.2610183370  12.2341530290
Mg  2.2622613910  5.7062304800  8.1423830440
6
scale = 1.95000
Li  2.1404284980  1.4539217160  4.1744717820
Li  10.7356646085  7.2923790810  20.9377370475
Mg  3.1087337385  0.0000000000  9.9928757370
Mg  7.4455647825  2.8899063570  6.7626768300
Mg  6.4380465630  4.3731503985  12.5561044245
Mg  2.3217945855  5.8563944400  8.3566562820
6
scale = 2.00000
Li  2.1953112800  1.4912017600  4.2815095200
Li  11.0109380600  7.4793631600  21.4746021000
Mg  3.1884448600  0.0000000000  10.2491033200
Mg  7.6364767000  2.9640065200  6.9360788000
Mg  6.6031246800  4.4852824600  12.8780558200
Mg  2.3813277800  6.0065584000  8.5709295200
6
scale = 2.05000
Li  2.2501940620  1.5284818040  4.3885472580
Li  11.2862115115  7.6663472390  22.0114671525
Mg  3.2681559815  0.0000000000  10.5053309030
Mg  7.8273886175  3.0381066830  7.1094807700
Mg  6.7682027970  4.5974145215  13.2000072155
Mg  2.4408609745  6.1567223600  8.7852027580
6
scale = 2.10000
Li  2.3050768440  1.5657618480  4.4955849960
Li  11.5614849630  7.8533313180  22.5483322050
Mg  3.3478671030  0.0000000000  10.7615584860
Mg  8.0183005350  3.1122068460  7.2828827400
Mg  6.9332809140  4.7095465830  13.5219586110
Mg  2.5003941690  6.3068863200  8.9994759960
6
scale = 2.15000
Li  2.3599596260  1.6030418920  4.6026227340
Li  11.8367584145  8.0403153970  23.0851972575
Mg  3.4275782245  0.0000000000  11.0177860690
Mg  8.2092124525  3.1863070090  7.4562847100
Mg  7.0983590310  4.8216786445  13.8439100065
Mg  2.5599273635  6.4570502800  9.2137492340
6
scale = 2.20000
Li  2.4148424080  1.6403219360  4.7096604720
Li  12.1120318660  8.2272994760  23.6220623100
Mg  3.5072893460  0.0000000000  11.2740136520
Mg  8.4001243700  3.2604071720  7.6296866800
Mg  7.2634371480  4.9338107060  14.1658614020
Mg  2.6194605580  6.6072142400  9.4280224720
6
scale = 2.25000
Li  2.4697251900  1.6776019800  4.8166982100
Li  12.3873053175  8.4142835550  24.1589273625
Mg  3.5870004675  0.0000000000  11.5302412350
Mg  8.5910362875  3.3345073350  7.8030886500
Mg  7.4285152650  5.0459427675  14.4878127975
Mg  2.6789937525  6.7573782000  9.6422957100
6
scale = 2.30000
Li  2.5246079720  1.7148820240  4.9237359480
Li  12.6625787690  8.6012676340  24.6957924150
Mg  3.6667115890  0.0000000000  11.7864688180
Mg  8.7819482050  3.4086074980  7.9764906200
Mg  7.5935933820  5.1580748290  14.8097641930
Mg  2.7385269470  6.9075421600  9.8565689480
6
scale = 2.35000
Li  2.5794907540  1.7521620680  5.0307736860
Li  12.9378522205  8.7882517130  25.2326574675
Mg  3.7464227105  0.0000000000  12.0426964010
Mg  8.9728601225  3.4827076610  8.1498925900
Mg  7.7586714990  5.2702068905  15.1317155885
Mg  2.7980601415  7.0577061200  10.0708421860
6
scale = 2.40000
Li  2.6343735360  1.7894421120  5.1378114240
Li  13.2131256720  8.9752357920  25.7695225200
Mg  3.8261338320  0.0000000000  12.2989239840
Mg  9.1637720400  3.5568078240  8.3232945600
Mg  7.9237496160  5.3823389520  15.4536669840
Mg  2.8575933360  7.2078700800  10.2851154240
6
scale = 2.45000
Li  2.6892563180  1.8267221560  5.2448491620
Li  13.4883991235  9.1622198710  26.3063875725
Mg  3.9058449535  0.0000000000  12.5551515670
Mg  9.3546839575  3.6309079870  8.4966965300
Mg  8.0888277330  5.4944710135  15.7756183795
Mg  2.9171265305  7.3580340400  10.4993886620
