6
scale = 0.75000
Li  6.0643633650  0.0033051375  0.0000000000
Li  2.1681199875  0.7874845050  0.0000000000
Li  -4.3027687200  2.0898511500  1.8886863750
Mg  -1.7213209050  1.5702947700  0.0000000000
Mg  -0.3481549125  1.2939238350  1.8886863750
Mg  3.4561731600  0.5282438475  1.8886863750
6
scale = 0.80000
Li  6.4686542560  0.0035254800  0.0000000000
Li  2.3126613200  0.8399834720  0.0000000000
Li  -4.5896199680  2.2291745600  2.0145988000
Mg  -1.8360756320  1.6749810880  0.0000000000
Mg  -0.3713652400  1.3801854240  2.0145988000
Mg  3.6865847040  0.5634601040  2.0145988000
6
scale = 0.85000
Li  6.8729451470  0.0037458225  0.0000000000
Li  2.4572026525  0.8924824390  0.0000000000
Li  -4.8764712160  2.3684979700  2.1405112250
Mg  -1.9508303590  1.7796674060  0.0000000000
Mg  -0.3945755675  1.4664470130  2.1405112250
Mg  3.9169962480  0.5986763605  2.1405112250
6
scale = 0.90000
Li  7.2772360380  0.0039661650  0.0000000000
Li  2.6017439850  0.9449814060  0.0000000000
Li  -5.1633224640  2.5078213800  2.2664236500
Mg  -2.0655850860  1.8843537240  0.0000000000
Mg  -0.4177858950  1.5527086020  2.2664236500
Mg  4.1474077920  0.6338926170  2.2664236500
6
scale = 0.95000
Li  7.6815269290  0.0041865075  0.0000000000
Li  2.7462853175  0.9974803730  0.0000000000
Li  -5.4501737120  2.6471447900  2.3923360750
Mg  -2.1803398130  1.9890400420  0.0000000000
Mg  -0.4409962225  1.6389701910  2.3923360750
Mg  4.3778193360  0.6691088735  2.3923360750
6
scale = 1.00000
Li  8.0858178200  0.0044068500  0.0000000000
Li  2.8908266500  1.0499793400  0.0000000000
Li  -5.7370249600  2.7864682000  2.5182485000
Mg  -2.2950945400  2.0937263600  0.0000000000
Mg  -0.4642065500  1.7252317800  2.5182485000
Mg  4.6082308800  0.7043251300  2.5182485000
6
scale = 1.05000
Li  8.4901087110  0.0046271925  0.0000000000
Li  3.0353679825  1.1024783070  0.0000000000
Li  -6.0238762080  2.9257916100  2.6441609250
Mg  -2.4098492670  2.1984126780  0.0000000000
Mg  -0.4874168775  1.8114933690  2.6441609250
Mg  4.8386424240  0.7395413865  2.6441609250
6
scale = 1.10000
Li  8.8943996020  0.0048475350  0.0000000000
Li  3.1799093150  1.1549772740  0.0000000000
Li  -6.3107274560  3.0651150200  2.7700733500
Mg  -2.5246039940  2.3030989960  0.0000000000
Mg  -0.5106272050  1.8977549580  2.7700733500
Mg  5.0690539680  0.7747576430  2.7700733500
6
scale = 1.15000
Li  9.2986904930  0.0050678775  0.0000000000
Li  3.3244506475  1.2074762410  0.0000000000
Li  -6.5975787040  3.2044384300  2.8959857750
Mg  -2.6393587210  2.4077853140  0.0000000000
Mg  -0.5338375325  1.9840165470  2.8959857750
Mg  5.2994655120  0.8099738995  2.8959857750
6
scale = 1.20000
Li  9.7029813840  0.0052882200  0.0000000000
Li  3.4689919800  1.2599752080  0.0000000000
Li  -6.8844299520  3.3437618400  3.0218982000
Mg  -2.7541134480  2.5124716320  0.0000000000
Mg  -0.5570478600  2.0702781360  3.0218982000
Mg  5.5298770560  0.8451901560  3.0218982000
6
scale = 1.25000
Li  10.1072722750  0.0055085625  0.0000000000
Li  3.6135333125  1.3124741750  0.0000000000
Li  -7.1712812000  3.4830852500  3.1478106250
Mg  -2.8688681750  2.6171579500  0.0000000000
Mg  -0.5802581875  2.1565397250  3.1478106250
Mg  5.7602886000  0.8804064125  3.1478106250
6
scale = 1.30000
Li  10.5115631660  0.0057289050  0.0000000000
Li  3.7580746450  1.3649731420  0.0000000000
Li  -7.4581324480  3.6224086600  3.2737230500
Mg  -2.9836229020  2.7218442680  0.0000000000
Mg  -0.6034685150  2.2428013140  3.2737230500
Mg  5.9907001440  0.9156226690  3.2737230500
6
scale = 1.35000
Li  10.9158540570  0.0059492475  0.0000000000
Li  3.9026159775  1.4174721090  0.0000000000
Li  -7.7449836960  3.7617320700  3.3996354750
Mg  -3.0983776290  2.8265305860  0.0000000000
Mg  -0.6266788425  2.3290629030  3.3996354750
Mg  6.2211116880  0.9508389255  3.3996354750
6
scale = 1.40000
Li  11.3201449480  0.0061695900  0.0000000000
Li  4.0471573100  1.4699710760  0.0000000000
Li  -8.0318349440  3.9010554800  3.5255479000
Mg  -3.2131323560  2.9312169040  0.0000000000
Mg  -0.6498891700  2.4153244920  3.5255479000
Mg  6.4515232320  0.9860551820  3.5255479000
6
scale = 1.45000
Li  11.7244358390  0.0063899325  0.0000000000
Li  4.1916986425  1.5224700430  0.0000000000
Li  -8.3186861920  4.0403788900  3.6514603250
Mg  -3.3278870830  3.0359032220  0.0000000000
Mg  -0.6730994975  2.5015860810  3.6514603250
Mg  6.6819347760  1.0212714385  3.6514603250
6
scale = 1.50000
Li  12.1287267300  0.0066102750  0.0000000000
Li  4.3362399750  1.5749690100  0.0000000000
Li  -8.6055374400  4.1797023000  3.7773727500
Mg  -3.4426418100  3.1405895400  0.0000000000
Mg  -0.6963098250  2.5878476700  3.7773727500
Mg  6.9123463200  1.0564876950  3.7773727500
6
scale = 1.55000
Li  12.5330176210  0.0068306175  0.0000000000
Li  4.4807813075  1.6274679770  0.0000000000
Li  -8.8923886880  4.3190257100  3.9032851750
Mg  -3.5573965370  3.2452758580  0.0000000000
Mg  -0.7195201525  2.6741092590  3.9032851750
Mg  7.1427578640  1.0917039515  3.9032851750
6
scale = 1.60000
Li  12.9373085120  0.0070509600  0.0000000000
Li  4.6253226400  1.6799669440  0.0000000000
Li  -9.1792399360  4.4583491200  4.0291976000
Mg  -3.6721512640  3.3499621760  0.0000000000
Mg  -0.7427304800  2.7603708480  4.0291976000
Mg  7.3731694080  1.1269202080  4.0291976000
6
scale = 1.65000
Li  13.3415994030  0.0072713025  0.0000000000
Li  4.7698639725  1.7324659110  0.0000000000
Li  -9.4660911840  4.5976725300  4.1551100250
Mg  -3.7869059910  3.4546484940  0.0000000000
Mg  -0.7659408075  2.8466324370  4.1551100250
Mg  7.6035809520  1.1621364645  4.1551100250
6
scale = 1.70000
Li  13.7458902940  0.0074916450  0.0000000000
Li  4.9144053050  1.7849648780  0.0000000000
Li  -9.7529424320  4.7369959400  4.2810224500
Mg  -3.9016607180  3.5593348120  0.0000000000
Mg  -0.7891511350  2.9328940260  4.2810224500
Mg  7.8339924960  1.1973527210  4.2810224500
6
scale = 1.75000
Li  14.1501811850  0.0077119875  0.0000000000
Li  5.0589466375  1.8374638450  0.0000000000
Li  -10.0397936800  4.8763193500  4.4069348750
Mg  -4.0164154450  3.6640211300  0.0000000000
Mg  -0.8123614625  3.0191556150  4.4069348750
Mg  8.0644040400  1.2325689775  4.4069348750
6
scale = 1.80000
Li  14.5544720760  0.0079323300  0.0000000000
Li  5.2034879700  1.8899628120  0.0000000000
Li  -10.3266449280  5.0156427600  4.5328473000
Mg  -4.1311701720  3.7687074480  0.0000000000
Mg  -0.8355717900  3.1054172040  4.5328473000
Mg  8.2948155840  1.2677852340  4.5328473000
6
scale = 1.85000
Li  14.9587629670  0.0081526725  0.0000000000
Li  5.3480293025  1.9424617790  0.0000000000
Li  -10.6134961760  5.1549661700  4.6587597250
Mg  -4.2459248990  3.8733937660  0.0000000000
Mg  -0.8587821175  3.1916787930  4.6587597250
Mg  8.5252271280  1.3030014905  4.6587597250
6
scale = 1.90000
Li  15.3630538580  0.0083730150  0.0000000000
Li  5.4925706350  1.9949607460  0.0000000000
Li  -10.9003474240  5.2942895800  4.7846721500
Mg  -4.3606796260  3.9780800840  0.0000000000
Mg  -0.8819924450  3.2779403820  4.7846721500
Mg  8.7556386720  1.3382177470  4.7846721500
6
scale = 1.95000
Li  15.7673447490  0.0085933575  0.0000000000
Li  5.6371119675  2.0474597130  0.0000000000
Li  -11.1871986720  5.4336129900  4.9105845750
Mg  -4.4754343530  4.0827664020  0.0000000000
Mg  -0.9052027725  3.3642019710  4.9105845750
Mg  8.9860502160  1.3734340035  4.9105845750
6
scale = 2.00000
Li  16.1716356400  0.0088137000  0.0000000000
Li  5.7816533000  2.0999586800  0.0000000000
Li  -11.4740499200  5.5729364000  5.0364970000
Mg  -4.5901890800  4.1874527200  0.0000000000
Mg  -0.9284131000  3.4504635600  5.0364970000
Mg  9.2164617600  1.4086502600  5.0364970000
6
scale = 2.05000
Li  16.5759265310  0.0090340425  0.0000000000
Li  5.9261946325  2.1524576470  0.0000000000
Li  -11.7609011680  5.7122598100  5.1624094250
Mg  -4.7049438070  4.2921390380  0.0000000000
Mg  -0.9516234275  3.5367251490  5.1624094250
Mg  9.4468733040  1.4438665165  5.1624094250
6
scale = 2.10000
Li  16.9802174220  0.0092543850  0.0000000000
Li  6.0707359650  2.2049566140  0.0000000000
Li  -12.0477524160  5.8515832200  5.2883218500
Mg  -4.8196985340  4.3968253560  0.0000000000
Mg  -0.9748337550  3.6229867380  5.2883218500
Mg  9.6772848480  1.4790827730  5.2883218500
6
scale = 2.15000
Li  17.3845083130  0.0094747275  0.0000000000
Li  6.2152772975  2.2574555810  0.0000000000
Li  -12.3346036640  5.9909066300  5.4142342750
Mg  -4.9344532610  4.5015116740  0.0000000000
Mg  -0.9980440825  3.7092483270  5.4142342750
Mg  9.9076963920  1.5142990295  5.4142342750
6
scale = 2.20000
Li  17.7887992040  0.0096950700  0.0000000000
Li  6.3598186300  2.3099545480  0.0000000000
Li  -12.6214549120  6.1302300400  5.5401467000
Mg  -5.0492079880  4.6061979920  0.0000000000
Mg  -1.0212544100  3.7955099160  5.5401467000
Mg  10.1381079360  1.5495152860  5.5401467000
6
scale = 2.25000
Li  18.1930900950  0.0099154125  0.0000000000
Li  6.5043599625  2.3624535150  0.0000000000
Li  -12.9083061600  6.2695534500  5.6660591250
Mg  -5.1639627150  4.7108843100  0.0000000000
Mg  -1.0444647375  3.8817715050  5.6660591250
Mg  10.3685194800  1.5847315425  5.6660591250
6
scale = 2.30000
Li  18.5973809860  0.0101357550  0.0000000000
Li  6.6489012950  2.4149524820  0.0000000000
Li  -13.1951574080  6.4088768600  5.7919715500
Mg  -5.2787174420  4.8155706280  0.0000000000
Mg  -1.0676750650  3.9680330940  5.7919715500
Mg  10.5989310240  1.6199477990  5.7919715500
6
scale = 2.35000
Li  19.0016718770  0.0103560975  0.0000000000
Li  6.7934426275  2.4674514490  0.0000000000
Li  -13.4820086560  6.5482002700  5.9178839750
Mg  -5.3934721690  4.9202569460  0.0000000000
Mg  -1.0908853925  4.0542946830  5.9178839750
Mg  10.8293425680  1.6551640555  5.9178839750
6
scale = 2.40000
Li  19.4059627680  0.0105764400  0.0000000000
Li  6.9379839600  2.5199504160  0.0000000000
Li  -13.7688599040  6.6875236800  6.0437964000
Mg  -5.5082268960  5.0249432640  0.0000000000
Mg  -1.1140957200  4.1405562720  6.0437964000
Mg  11.0597541120  1.6903803120  6.0437964000
6
scale = 2.45000
Li  19.8102536590  0.0107967825  0.0000000000
Li  7.0825252925  2.5724493830  0.0000000000
Li  -14.0557111520  6.8268470900  6.1697088250
Mg  -5.6229816230  5.1296295820  0.0000000000
Mg  -1.1373060475  4.2268178610  6.1697088250
Mg  11.2901656560  1.7255965685  6.1697088250
