2
scale = 0.75000
Li  0.0000000000  0.0000000000  0.0000000000
Mg  1.2807472500  1.2807472500  1.2807472500
2
scale = 0.80000
Li  0.0000000000  0.0000000000  0.0000000000
Mg  1.3661304000  1.3661304000  1.3661304000
2
scale = 0.85000
Li  0.0000000000  0.0000000000  0.0000000000
Mg  1.4515135500  1.4515135500  1.4515135500
2
scale = 0.90000
Li  0.0000000000  0.0000000000  0.0000000000
Mg  1.5368967000  1.5368967000  1.5368967000
2
scale = 0.95000
Li  0.0000000000  0.0000000000  0.0000000000
Mg  1.6222798500  1.6222798500  1.6222798500
2
scale = 1.00000
Li  0.0000000000  0.0000000000  0.0000000000
Mg  1.7076630000  1.7076630000  1.7076630000
2
scale = 1.05000
Li  0.0000000000  0.0000000000  0.0000000000
Mg  1.7930461500  1.7930461500  1.7930461500
2
scale = 1.10000
Li  0.0000000000  0.0000000000  0.0000000000
Mg  1.8784293000  1.8784293000  1.8784293000
2
scale = 1.15000
Li  0.0000000000  0.0000000000  0.0000000000
Mg  1.9638124500  1.9638124500  1.9638124500
2
scale = 1.20000
Li  0.0000000000  0.0000000000  0.0000000000
Mg  2.0491956000  2.0491956000  2.0491956000
2
scale = 1.25000
Li  0.0000000000  0.0000000000  0.0000000000
Mg  2.1345787500  2.1345787500  2.1345787500
2
scale = 1.30000
Li  0.0000000000  0.0000000000  0.0000000000
Mg  2.2199619000  2.2199619000  2.2199619000
2
scale = 1.35000
Li  0.0000000000  0.0000000000  0.0000000000
Mg  2.3053450500  2.3053450500  2.3053450500
2
scale = 1.40000
Li  0.0000000000  0.0000000000  0.0000000000
Mg  2.3907282000  2.3907282000  2.3907282000
2
scale = 1.45000
Li  0.0000000000  0.0000000000  0.0000000000
Mg  2.4761113500  2.4761113500  2.4761113500
2
scale = 1.50000
Li  0.0000000000  0.0000000000  0.0000000000
Mg  2.5614945000  2.5614945000  2.5614945000
2
scale = 1.55000
Li  0.0000000000  0.0000000000  0.0000000000
Mg  2.6468776500  2.6468776500  2.6468776500
2
scale = 1.60000
Li  0.0000000000  0.0000000000  0.0000000000
Mg  2.7322608000  2.7322608000  2.7322608000
2
scale = 1.65000
Li  0.0000000000  0.0000000000  0.0000000000
Mg  2.8176439500  2.8176439500  2.8176439500
2
scale = 1.70000
Li  0.0000000000  0.0000000000  0.0000000000
Mg  2.9030271000  2.9030271000  2.9030271000
2
scale = 1.75000
Li  0.0000000000  0.0000000000  0.0000000000
Mg  2.9884102500  2.9884102500  2.9884102500
2
scale = 1.80000
Li  0.0000000000  0.0000000000  0.0000000000
Mg  3.0737934000  3.0737934000  3.0737934000
2
scale = 1.85000
Li  0.0000000000  0.0000000000  0.0000000000
Mg  3.1591765500  3.1591765500  3.1591765500
2
scale = 1.90000
Li  0.0000000000  0.0000000000  0.0000000000
Mg  3.2445597000  3.2445597000  3.2445597000
2
scale = 1.95000
Li  0.0000000000  0.0000000000  0.0000000000
Mg  3.3299428500  3.3299428500  3.3299428500
2
scale = 2.00000
Li  0.0000000000  0.0000000000  0.0000000000
Mg  3.4153260000  3.4153260000  3.4153260000
2
scale = 2.05000
Li  0.0000000000  0.0000000000  0.0000000000
Mg  3.5007091500  3.5007091500  3.5007091500
2
scale = 2.10000
Li  0.0000000000  0.0000000000  0.0000000000
Mg  3.5860923000  3.5860923000  3.5860923000
2
scale = 2.15000
Li  0.0000000000  0.0000000000  0.0000000000
Mg  3.6714754500  3.6714754500  3.6714754500
2
scale = 2.20000
Li  0.0000000000  0.0000000000  0.0000000000
Mg  3.7568586000  3.7568586000  3.7568586000
2
scale = 2.25000
Li  0.0000000000  0.0000000000  0.0000000000
Mg  3.8422417500  3.8422417500  3.8422417500
2
scale = 2.30000
Li  0.0000000000  0.0000000000  0.0000000000
Mg  3.9276249000  3.9276249000  3.9276249000
2
scale = 2.35000
Li  0.0000000000  0.0000000000  0.0000000000
Mg  4.0130080500  4.0130080500  4.0130080500
2
scale = 2.40000
Li  0.0000000000  0.0000000000  0.0000000000
Mg  4.0983912000  4.0983912000  4.0983912000
2
scale = 2.45000
Li  0.0000000000  0.0000000000  0.0000000000
Mg  4.1837743500  4.1837743500  4.1837743500
