6
scale = 0.75000
Li  1.1484000900  0.3750626475  1.2238666650
Li  3.6452107275  1.1905105050  1.3139326350
Li  6.1420213575  2.0059583700  6.7714436550
Mg  1.2716154300  0.4153042575  4.1448135150
Mg  3.6452107275  1.1905105050  3.9976551600
Mg  6.0188060175  1.9657167525  3.8504967975
6
scale = 0.80000
Li  1.2249600960  0.4000668240  1.3054577760
Li  3.8882247760  1.2698778720  1.4015281440
Li  6.5514894480  2.1396889280  7.2228732320
Mg  1.3563897920  0.4429912080  4.4211344160
Mg  3.8882247760  1.2698778720  4.2641655040
Mg  6.4200597520  2.0967645360  4.1071965840
6
scale = 0.85000
Li  1.3015201020  0.4250710005  1.3870488870
Li  4.1312388245  1.3492452390  1.4891236530
Li  6.9609575385  2.2734194860  7.6743028090
Mg  1.4411641540  0.4706781585  4.6974553170
Mg  4.1312388245  1.3492452390  4.5306758480
Mg  6.8213134865  2.2278123195  4.3638963705
6
scale = 0.90000
Li  1.3780801080  0.4500751770  1.4686399980
Li  4.3742528730  1.4286126060  1.5767191620
Li  7.3704256290  2.4071500440  8.1257323860
Mg  1.5259385160  0.4983651090  4.9737762180
Mg  4.3742528730  1.4286126060  4.7971861920
Mg  7.2225672210  2.3588601030  4.6205961570
6
scale = 0.95000
Li  1.4546401140  0.4750793535  1.5502311090
Li  4.6172669215  1.5079799730  1.6643146710
Li  7.7798937195  2.5408806020  8.5771619630
Mg  1.6107128780  0.5260520595  5.2500971190
Mg  4.6172669215  1.5079799730  5.0636965360
Mg  7.6238209555  2.4899078865  4.8772959435
6
scale = 1.00000
Li  1.5312001200  0.5000835300  1.6318222200
Li  4.8602809700  1.5873473400  1.7519101800
Li  8.1893618100  2.6746111600  9.0285915400
Mg  1.6954872400  0.5537390100  5.5264180200
Mg  4.8602809700  1.5873473400  5.3302068800
Mg  8.0250746900  2.6209556700  5.1339957300
6
scale = 1.05000
Li  1.6077601260  0.5250877065  1.7134133310
Li  5.1032950185  1.6667147070  1.8395056890
Li  8.5988299005  2.8083417180  9.4800211170
Mg  1.7802616020  0.5814259605  5.8027389210
Mg  5.1032950185  1.6667147070  5.5967172240
Mg  8.4263284245  2.7520034535  5.3906955165
6
scale = 1.10000
Li  1.6843201320  0.5500918830  1.7950044420
Li  5.3463090670  1.7460820740  1.9271011980
Li  9.0082979910  2.9420722760  9.9314506940
Mg  1.8650359640  0.6091129110  6.0790598220
Mg  5.3463090670  1.7460820740  5.8632275680
Mg  8.8275821590  2.8830512370  5.6473953030
6
scale = 1.15000
Li  1.7608801380  0.5750960595  1.8765955530
Li  5.5893231155  1.8254494410  2.0146967070
Li  9.4177660815  3.0758028340  10.3828802710
Mg  1.9498103260  0.6367998615  6.3553807230
Mg  5.5893231155  1.8254494410  6.1297379120
Mg  9.2288358935  3.0140990205  5.9040950895
6
scale = 1.20000
Li  1.8374401440  0.6001002360  1.9581866640
Li  5.8323371640  1.9048168080  2.1022922160
Li  9.8272341720  3.2095333920  10.8343098480
Mg  2.0345846880  0.6644868120  6.6317016240
Mg  5.8323371640  1.9048168080  6.3962482560
Mg  9.6300896280  3.1451468040  6.1607948760
6
scale = 1.25000
Li  1.9140001500  0.6251044125  2.0397777750
Li  6.0753512125  1.9841841750  2.1898877250
Li  10.2367022625  3.3432639500  11.2857394250
Mg  2.1193590500  0.6921737625  6.9080225250
Mg  6.0753512125  1.9841841750  6.6627586000
Mg  10.0313433625  3.2761945875  6.4174946625
6
scale = 1.30000
Li  1.9905601560  0.6501085890  2.1213688860
Li  6.3183652610  2.0635515420  2.2774832340
Li  10.6461703530  3.4769945080  11.7371690020
Mg  2.2041334120  0.7198607130  7.1843434260
Mg  6.3183652610  2.0635515420  6.9292689440
Mg  10.4325970970  3.4072423710  6.6741944490
6
scale = 1.35000
Li  2.0671201620  0.6751127655  2.2029599970
Li  6.5613793095  2.1429189090  2.3650787430
Li  11.0556384435  3.6107250660  12.1885985790
Mg  2.2889077740  0.7475476635  7.4606643270
Mg  6.5613793095  2.1429189090  7.1957792880
Mg  10.8338508315  3.5382901545  6.9308942355
6
scale = 1.40000
Li  2.1436801680  0.7001169420  2.2845511080
Li  6.8043933580  2.2222862760  2.4526742520
Li  11.4651065340  3.7444556240  12.6400281560
Mg  2.3736821360  0.7752346140  7.7369852280
Mg  6.8043933580  2.2222862760  7.4622896320
Mg  11.2351045660  3.6693379380  7.1875940220
6
scale = 1.45000
Li  2.2202401740  0.7251211185  2.3661422190
Li  7.0474074065  2.3016536430  2.5402697610
Li  11.8745746245  3.8781861820  13.0914577330
Mg  2.4584564980  0.8029215645  8.0133061290
Mg  7.0474074065  2.3016536430  7.7287999760
Mg  11.6363583005  3.8003857215  7.4442938085
6
scale = 1.50000
Li  2.2968001800  0.7501252950  2.4477333300
Li  7.2904214550  2.3810210100  2.6278652700
Li  12.2840427150  4.0119167400  13.5428873100
Mg  2.5432308600  0.8306085150  8.2896270300
Mg  7.2904214550  2.3810210100  7.9953103200
Mg  12.0376120350  3.9314335050  7.7009935950
6
scale = 1.55000
Li  2.3733601860  0.7751294715  2.5293244410
Li  7.5334355035  2.4603883770  2.7154607790
Li  12.6935108055  4.1456472980  13.9943168870
Mg  2.6280052220  0.8582954655  8.5659479310
Mg  7.5334355035  2.4603883770  8.2618206640
Mg  12.4388657695  4.0624812885  7.9576933815
6
scale = 1.60000
Li  2.4499201920  0.8001336480  2.6109155520
Li  7.7764495520  2.5397557440  2.8030562880
Li  13.1029788960  4.2793778560  14.4457464640
Mg  2.7127795840  0.8859824160  8.8422688320
Mg  7.7764495520  2.5397557440  8.5283310080
Mg  12.8401195040  4.1935290720  8.2143931680
6
scale = 1.65000
Li  2.5264801980  0.8251378245  2.6925066630
Li  8.0194636005  2.6191231110  2.8906517970
Li  13.5124469865  4.4131084140  14.8971760410
Mg  2.7975539460  0.9136693665  9.1185897330
Mg  8.0194636005  2.6191231110  8.7948413520
Mg  13.2413732385  4.3245768555  8.4710929545
6
scale = 1.70000
Li  2.6030402040  0.8501420010  2.7740977740
Li  8.2624776490  2.6984904780  2.9782473060
Li  13.9219150770  4.5468389720  15.3486056180
Mg  2.8823283080  0.9413563170  9.3949106340
Mg  8.2624776490  2.6984904780  9.0613516960
Mg  13.6426269730  4.4556246390  8.7277927410
6
scale = 1.75000
Li  2.6796002100  0.8751461775  2.8556888850
Li  8.5054916975  2.7778578450  3.0658428150
Li  14.3313831675  4.6805695300  15.8000351950
Mg  2.9671026700  0.9690432675  9.6712315350
Mg  8.5054916975  2.7778578450  9.3278620400
Mg  14.0438807075  4.5866724225  8.9844925275
6
scale = 1.80000
Li  2.7561602160  0.9001503540  2.9372799960
Li  8.7485057460  2.8572252120  3.1534383240
Li  14.7408512580  4.8143000880  16.2514647720
Mg  3.0518770320  0.9967302180  9.9475524360
Mg  8.7485057460  2.8572252120  9.5943723840
Mg  14.4451344420  4.7177202060  9.2411923140
6
scale = 1.85000
Li  2.8327202220  0.9251545305  3.0188711070
Li  8.9915197945  2.9365925790  3.2410338330
Li  15.1503193485  4.9480306460  16.7028943490
Mg  3.1366513940  1.0244171685  10.2238733370
Mg  8.9915197945  2.9365925790  9.8608827280
Mg  14.8463881765  4.8487679895  9.4978921005
6
scale = 1.90000
Li  2.9092802280  0.9501587070  3.1004622180
Li  9.2345338430  3.0159599460  3.3286293420
Li  15.5597874390  5.0817612040  17.1543239260
Mg  3.2214257560  1.0521041190  10.5001942380
Mg  9.2345338430  3.0159599460  10.1273930720
Mg  15.2476419110  4.9798157730  9.7545918870
6
scale = 1.95000
Li  2.9858402340  0.9751628835  3.1820533290
Li  9.4775478915  3.0953273130  3.4162248510
Li  15.9692555295  5.2154917620  17.6057535030
Mg  3.3062001180  1.0797910695  10.7765151390
Mg  9.4775478915  3.0953273130  10.3939034160
Mg  15.6488956455  5.1108635565  10.0112916735
6
scale = 2.00000
Li  3.0624002400  1.0001670600  3.2636444400
Li  9.7205619400  3.1746946800  3.5038203600
Li  16.3787236200  5.3492223200  18.0571830800
Mg  3.3909744800  1.1074780200  11.0528360400
Mg  9.7205619400  3.1746946800  10.6604137600
Mg  16.0501493800  5.2419113400  10.2679914600
6
scale = 2.05000
Li  3.1389602460  1.0251712365  3.3452355510
Li  9.9635759885  3.2540620470  3.5914158690
Li  16.7881917105  5.4829528780  18.5086126570
Mg  3.4757488420  1.1351649705  11.3291569410
Mg  9.9635759885  3.2540620470  10.9269241040
Mg  16.4514031145  5.3729591235  10.5246912465
6
scale = 2.10000
Li  3.2155202520  1.0501754130  3.4268266620
Li  10.2065900370  3.3334294140  3.6790113780
Li  17.1976598010  5.6166834360  18.9600422340
Mg  3.5605232040  1.1628519210  11.6054778420
Mg  10.2065900370  3.3334294140  11.1934344480
Mg  16.8526568490  5.5040069070  10.7813910330
6
scale = 2.15000
Li  3.2920802580  1.0751795895  3.5084177730
Li  10.4496040855  3.4127967810  3.7666068870
Li  17.6071278915  5.7504139940  19.4114718110
Mg  3.6452975660  1.1905388715  11.8817987430
Mg  10.4496040855  3.4127967810  11.4599447920
Mg  17.2539105835  5.6350546905  11.0380908195
6
scale = 2.20000
Li  3.3686402640  1.1001837660  3.5900088840
Li  10.6926181340  3.4921641480  3.8542023960
Li  18.0165959820  5.8841445520  19.8629013880
Mg  3.7300719280  1.2182258220  12.1581196440
Mg  10.6926181340  3.4921641480  11.7264551360
Mg  17.6551643180  5.7661024740  11.2947906060
6
scale = 2.25000
Li  3.4452002700  1.1251879425  3.6715999950
Li  10.9356321825  3.5715315150  3.9417979050
Li  18.4260640725  6.0178751100  20.3143309650
Mg  3.8148462900  1.2459127725  12.4344405450
Mg  10.9356321825  3.5715315150  11.9929654800
Mg  18.0564180525  5.8971502575  11.5514903925
6
scale = 2.30000
Li  3.5217602760  1.1501921190  3.7531911060
Li  11.1786462310  3.6508988820  4.0293934140
Li  18.8355321630  6.1516056680  20.7657605420
Mg  3.8996206520  1.2735997230  12.7107614460
Mg  11.1786462310  3.6508988820  12.2594758240
Mg  18.4576717870  6.0281980410  11.8081901790
6
scale = 2.35000
Li  3.5983202820  1.1751962955  3.8347822170
Li  11.4216602795  3.7302662490  4.1169889230
Li  19.2450002535  6.2853362260  21.2171901190
Mg  3.9843950140  1.3012866735  12.9870823470
Mg  11.4216602795  3.7302662490  12.5259861680
Mg  18.8589255215  6.1592458245  12.0648899655
6
scale = 2.40000
Li  3.6748802880  1.2002004720  3.9163733280
Li  11.6646743280  3.8096336160  4.2045844320
Li  19.6544683440  6.4190667840  21.6686196960
Mg  4.0691693760  1.3289736240  13.2634032480
Mg  11.6646743280  3.8096336160  12.7924965120
Mg  19.2601792560  6.2902936080  12.3215897520
6
scale = 2.45000
Li  3.7514402940  1.2252046485  3.9979644390
Li  11.9076883765  3.8890009830  4.2921799410
Li  20.0639364345  6.5527973420  22.1200492730
Mg  4.1539437380  1.3566605745  13.5397241490
Mg  11.9076883765  3.8890009830  13.0590068560
Mg  19.6614329905  6.4213413915  12.5782895385
