6
scale = 0.75000
Li  4.1500106700  1.2165642900  2.2628073525
Li  3.7138644300  1.0887092175  5.5105005375
Mg  6.3559691925  1.8632350050  2.5611890250
Mg  1.0906644300  0.3197253000  2.9174175300
Mg  6.7732106775  1.9855482075  4.8558903600
Mg  1.5079059150  0.4420385025  5.2121188650
6
scale = 0.80000
Li  4.4266780480  1.2976685760  2.4136611760
Li  3.9614553920  1.1612898320  5.8778672400
Mg  6.7797004720  1.9874506720  2.7319349600
Mg  1.1633753920  0.3410403200  3.1119120320
Mg  7.2247580560  2.1179180880  5.1796163840
Mg  1.6084329760  0.4715077360  5.5595934560
6
scale = 0.85000
Li  4.7033454260  1.3787728620  2.5645149995
Li  4.2090463540  1.2338704465  6.2452339425
Mg  7.2034317515  2.1116663390  2.9026808950
Mg  1.2360863540  0.3623553400  3.3064065340
Mg  7.6763054345  2.2502879685  5.5033424080
Mg  1.7089600370  0.5009769695  5.9070680470
6
scale = 0.90000
Li  4.9800128040  1.4598771480  2.7153688230
Li  4.4566373160  1.3064510610  6.6126006450
Mg  7.6271630310  2.2358820060  3.0734268300
Mg  1.3087973160  0.3836703600  3.5009010360
Mg  8.1278528130  2.3826578490  5.8270684320
Mg  1.8094870980  0.5304462030  6.2545426380
6
scale = 0.95000
Li  5.2566801820  1.5409814340  2.8662226465
Li  4.7042282780  1.3790316755  6.9799673475
Mg  8.0508943105  2.3600976730  3.2441727650
Mg  1.3815082780  0.4049853800  3.6953955380
Mg  8.5794001915  2.5150277295  6.1507944560
Mg  1.9100141590  0.5599154365  6.6020172290
6
scale = 1.00000
Li  5.5333475600  1.6220857200  3.0170764700
Li  4.9518192400  1.4516122900  7.3473340500
Mg  8.4746255900  2.4843133400  3.4149187000
Mg  1.4542192400  0.4263004000  3.8898900400
Mg  9.0309475700  2.6473976100  6.4745204800
Mg  2.0105412200  0.5893846700  6.9494918200
6
scale = 1.05000
Li  5.8100149380  1.7031900060  3.1679302935
Li  5.1994102020  1.5241929045  7.7147007525
Mg  8.8983568695  2.6085290070  3.5856646350
Mg  1.5269302020  0.4476154200  4.0843845420
Mg  9.4824949485  2.7797674905  6.7982465040
Mg  2.1110682810  0.6188539035  7.2969664110
6
scale = 1.10000
Li  6.0866823160  1.7842942920  3.3187841170
Li  5.4470011640  1.5967735190  8.0820674550
Mg  9.3220881490  2.7327446740  3.7564105700
Mg  1.5996411640  0.4689304400  4.2788790440
Mg  9.9340423270  2.9121373710  7.1219725280
Mg  2.2115953420  0.6483231370  7.6444410020
6
scale = 1.15000
Li  6.3633496940  1.8653985780  3.4696379405
Li  5.6945921260  1.6693541335  8.4494341575
Mg  9.7458194285  2.8569603410  3.9271565050
Mg  1.6723521260  0.4902454600  4.4733735460
Mg  10.3855897055  3.0445072515  7.4456985520
Mg  2.3121224030  0.6777923705  7.9919155930
6
scale = 1.20000
Li  6.6400170720  1.9465028640  3.6204917640
Li  5.9421830880  1.7419347480  8.8168008600
Mg  10.1695507080  2.9811760080  4.0979024400
Mg  1.7450630880  0.5115604800  4.6678680480
Mg  10.8371370840  3.1768771320  7.7694245760
Mg  2.4126494640  0.7072616040  8.3393901840
6
scale = 1.25000
Li  6.9166844500  2.0276071500  3.7713455875
Li  6.1897740500  1.8145153625  9.1841675625
Mg  10.5932819875  3.1053916750  4.2686483750
Mg  1.8177740500  0.5328755000  4.8623625500
Mg  11.2886844625  3.3092470125  8.0931506000
Mg  2.5131765250  0.7367308375  8.6868647750
6
scale = 1.30000
Li  7.1933518280  2.1087114360  3.9221994110
Li  6.4373650120  1.8870959770  9.5515342650
Mg  11.0170132670  3.2296073420  4.4393943100
Mg  1.8904850120  0.5541905200  5.0568570520
Mg  11.7402318410  3.4416168930  8.4168766240
Mg  2.6137035860  0.7662000710  9.0343393660
6
scale = 1.35000
Li  7.4700192060  2.1898157220  4.0730532345
Li  6.6849559740  1.9596765915  9.9189009675
Mg  11.4407445465  3.3538230090  4.6101402450
Mg  1.9631959740  0.5755055400  5.2513515540
Mg  12.1917792195  3.5739867735  8.7406026480
Mg  2.7142306470  0.7956693045  9.3818139570
6
scale = 1.40000
Li  7.7466865840  2.2709200080  4.2239070580
Li  6.9325469360  2.0322572060  10.2862676700
Mg  11.8644758260  3.4780386760  4.7808861800
Mg  2.0359069360  0.5968205600  5.4458460560
Mg  12.6433265980  3.7063566540  9.0643286720
Mg  2.8147577080  0.8251385380  9.7292885480
6
scale = 1.45000
Li  8.0233539620  2.3520242940  4.3747608815
Li  7.1801378980  2.1048378205  10.6536343725
Mg  12.2882071055  3.6022543430  4.9516321150
Mg  2.1086178980  0.6181355800  5.6403405580
Mg  13.0948739765  3.8387265345  9.3880546960
Mg  2.9152847690  0.8546077715  10.0767631390
6
scale = 1.50000
Li  8.3000213400  2.4331285800  4.5256147050
Li  7.4277288600  2.1774184350  11.0210010750
Mg  12.7119383850  3.7264700100  5.1223780500
Mg  2.1813288600  0.6394506000  5.8348350600
Mg  13.5464213550  3.9710964150  9.7117807200
Mg  3.0158118300  0.8840770050  10.4242377300
6
scale = 1.55000
Li  8.5766887180  2.5142328660  4.6764685285
Li  7.6753198220  2.2499990495  11.3883677775
Mg  13.1356696645  3.8506856770  5.2931239850
Mg  2.2540398220  0.6607656200  6.0293295620
Mg  13.9979687335  4.1034662955  10.0355067440
Mg  3.1163388910  0.9135462385  10.7717123210
6
scale = 1.60000
Li  8.8533560960  2.5953371520  4.8273223520
Li  7.9229107840  2.3225796640  11.7557344800
Mg  13.5594009440  3.9749013440  5.4638699200
Mg  2.3267507840  0.6820806400  6.2238240640
Mg  14.4495161120  4.2358361760  10.3592327680
Mg  3.2168659520  0.9430154720  11.1191869120
6
scale = 1.65000
Li  9.1300234740  2.6764414380  4.9781761755
Li  8.1705017460  2.3951602785  12.1231011825
Mg  13.9831322235  4.0991170110  5.6346158550
Mg  2.3994617460  0.7033956600  6.4183185660
Mg  14.9010634905  4.3682060565  10.6829587920
Mg  3.3173930130  0.9724847055  11.4666615030
6
scale = 1.70000
Li  9.4066908520  2.7575457240  5.1290299990
Li  8.4180927080  2.4677408930  12.4904678850
Mg  14.4068635030  4.2233326780  5.8053617900
Mg  2.4721727080  0.7247106800  6.6128130680
Mg  15.3526108690  4.5005759370  11.0066848160
Mg  3.4179200740  1.0019539390  11.8141360940
6
scale = 1.75000
Li  9.6833582300  2.8386500100  5.2798838225
Li  8.6656836700  2.5403215075  12.8578345875
Mg  14.8305947825  4.3475483450  5.9761077250
Mg  2.5448836700  0.7460257000  6.8073075700
Mg  15.8041582475  4.6329458175  11.3304108400
Mg  3.5184471350  1.0314231725  12.1616106850
6
scale = 1.80000
Li  9.9600256080  2.9197542960  5.4307376460
Li  8.9132746320  2.6129021220  13.2252012900
Mg  15.2543260620  4.4717640120  6.1468536600
Mg  2.6175946320  0.7673407200  7.0018020720
Mg  16.2557056260  4.7653156980  11.6541368640
Mg  3.6189741960  1.0608924060  12.5090852760
6
scale = 1.85000
Li  10.2366929860  3.0008585820  5.5815914695
Li  9.1608655940  2.6854827365  13.5925679925
Mg  15.6780573415  4.5959796790  6.3175995950
Mg  2.6903055940  0.7886557400  7.1962965740
Mg  16.7072530045  4.8976855785  11.9778628880
Mg  3.7195012570  1.0903616395  12.8565598670
6
scale = 1.90000
Li  10.5133603640  3.0819628680  5.7324452930
Li  9.4084565560  2.7580633510  13.9599346950
Mg  16.1017886210  4.7201953460  6.4883455300
Mg  2.7630165560  0.8099707600  7.3907910760
Mg  17.1588003830  5.0300554590  12.3015889120
Mg  3.8200283180  1.1198308730  13.2040344580
6
scale = 1.95000
Li  10.7900277420  3.1630671540  5.8832991165
Li  9.6560475180  2.8306439655  14.3273013975
Mg  16.5255199005  4.8444110130  6.6590914650
Mg  2.8357275180  0.8312857800  7.5852855780
Mg  17.6103477615  5.1624253395  12.6253149360
Mg  3.9205553790  1.1493001065  13.5515090490
6
scale = 2.00000
Li  11.0666951200  3.2441714400  6.0341529400
Li  9.9036384800  2.9032245800  14.6946681000
Mg  16.9492511800  4.9686266800  6.8298374000
Mg  2.9084384800  0.8526008000  7.7797800800
Mg  18.0618951400  5.2947952200  12.9490409600
Mg  4.0210824400  1.1787693400  13.8989836400
6
scale = 2.05000
Li  11.3433624980  3.3252757260  6.1850067635
Li  10.1512294420  2.9758051945  15.0620348025
Mg  17.3729824595  5.0928423470  7.0005833350
Mg  2.9811494420  0.8739158200  7.9742745820
Mg  18.5134425185  5.4271651005  13.2727669840
Mg  4.1216095010  1.2082385735  14.2464582310
6
scale = 2.10000
Li  11.6200298760  3.4063800120  6.3358605870
Li  10.3988204040  3.0483858090  15.4294015050
Mg  17.7967137390  5.2170580140  7.1713292700
Mg  3.0538604040  0.8952308400  8.1687690840
Mg  18.9649898970  5.5595349810  13.5964930080
Mg  4.2221365620  1.2377078070  14.5939328220
6
scale = 2.15000
Li  11.8966972540  3.4874842980  6.4867144105
Li  10.6464113660  3.1209664235  15.7967682075
Mg  18.2204450185  5.3412736810  7.3420752050
Mg  3.1265713660  0.9165458600  8.3632635860
Mg  19.4165372755  5.6919048615  13.9202190320
Mg  4.3226636230  1.2671770405  14.9414074130
6
scale = 2.20000
Li  12.1733646320  3.5685885840  6.6375682340
Li  10.8940023280  3.1935470380  16.1641349100
Mg  18.6441762980  5.4654893480  7.5128211400
Mg  3.1992823280  0.9378608800  8.5577580880
Mg  19.8680846540  5.8242747420  14.2439450560
Mg  4.4231906840  1.2966462740  15.2888820040
6
scale = 2.25000
Li  12.4500320100  3.6496928700  6.7884220575
Li  11.1415932900  3.2661276525  16.5315016125
Mg  19.0679075775  5.5897050150  7.6835670750
Mg  3.2719932900  0.9591759000  8.7522525900
Mg  20.3196320325  5.9566446225  14.5676710800
Mg  4.5237177450  1.3261155075  15.6363565950
6
scale = 2.30000
Li  12.7266993880  3.7307971560  6.9392758810
Li  11.3891842520  3.3387082670  16.8988683150
Mg  19.4916388570  5.7139206820  7.8543130100
Mg  3.3447042520  0.9804909200  8.9467470920
Mg  20.7711794110  6.0890145030  14.8913971040
Mg  4.6242448060  1.3555847410  15.9838311860
6
scale = 2.35000
Li  13.0033667660  3.8119014420  7.0901297045
Li  11.6367752140  3.4112888815  17.2662350175
Mg  19.9153701365  5.8381363490  8.0250589450
Mg  3.4174152140  1.0018059400  9.1412415940
Mg  21.2227267895  6.2213843835  15.2151231280
Mg  4.7247718670  1.3850539745  16.3313057770
6
scale = 2.40000
Li  13.2800341440  3.8930057280  7.2409835280
Li  11.8843661760  3.4838694960  17.6336017200
Mg  20.3391014160  5.9623520160  8.1958048800
Mg  3.4901261760  1.0231209600  9.3357360960
Mg  21.6742741680  6.3537542640  15.5388491520
Mg  4.8252989280  1.4145232080  16.6787803680
6
scale = 2.45000
Li  13.5567015220  3.9741100140  7.3918373515
Li  12.1319571380  3.5564501105  18.0009684225
Mg  20.7628326955  6.0865676830  8.3665508150
Mg  3.5628371380  1.0444359800  9.5302305980
Mg  22.1258215465  6.4861241445  15.8625751760
Mg  4.9258259890  1.4439924415  17.0262549590
