6
scale = 0.75000
Li  1.1846601750  0.6839638725  8.4210701475
Li  0.0000000900  1.3679277450  2.8070233800
Mg  0.0000000900  1.3679277450  10.2628157850
Mg  0.0000000900  1.3679277450  6.5793245025
Mg  1.1846601750  0.6839638725  4.6487690250
Mg  1.1846601750  0.6839638725  0.9652777425
6
scale = 0.80000
Li  1.2636375200  0.7295614640  8.9824748240
Li  0.0000000960  1.4591229280  2.9941582720
Mg  0.0000000960  1.4591229280  10.9470035040
Mg  0.0000000960  1.4591229280  7.0179461360
Mg  1.2636375200  0.7295614640  4.9586869600
Mg  1.2636375200  0.7295614640  1.0296295920
6
scale = 0.85000
Li  1.3426148650  0.7751590555  9.5438795005
Li  0.0000001020  1.5503181110  3.1812931640
Mg  0.0000001020  1.5503181110  11.6311912230
Mg  0.0000001020  1.5503181110  7.4565677695
Mg  1.3426148650  0.7751590555  5.2686048950
Mg  1.3426148650  0.7751590555  1.0939814415
6
scale = 0.90000
Li  1.4215922100  0.8207566470  10.1052841770
Li  0.0000001080  1.6415132940  3.3684280560
Mg  0.0000001080  1.6415132940  12.3153789420
Mg  0.0000001080  1.6415132940  7.8951894030
Mg  1.4215922100  0.8207566470  5.5785228300
Mg  1.4215922100  0.8207566470  1.1583332910
6
scale = 0.95000
Li  1.5005695550  0.8663542385  10.6666888535
Li  0.0000001140  1.7327084770  3.5555629480
Mg  0.0000001140  1.7327084770  12.9995666610
Mg  0.0000001140  1.7327084770  8.3338110365
Mg  1.5005695550  0.8663542385  5.8884407650
Mg  1.5005695550  0.8663542385  1.2226851405
6
scale = 1.00000
Li  1.5795469000  0.9119518300  11.2280935300
Li  0.0000001200  1.8239036600  3.7426978400
Mg  0.0000001200  1.8239036600  13.6837543800
Mg  0.0000001200  1.8239036600  8.7724326700
Mg  1.5795469000  0.9119518300  6.1983587000
Mg  1.5795469000  0.9119518300  1.2870369900
6
scale = 1.05000
Li  1.6585242450  0.9575494215  11.7894982065
Li  0.0000001260  1.9150988430  3.9298327320
Mg  0.0000001260  1.9150988430  14.3679420990
Mg  0.0000001260  1.9150988430  9.2110543035
Mg  1.6585242450  0.9575494215  6.5082766350
Mg  1.6585242450  0.9575494215  1.3513888395
6
scale = 1.10000
Li  1.7375015900  1.0031470130  12.3509028830
Li  0.0000001320  2.0062940260  4.1169676240
Mg  0.0000001320  2.0062940260  15.0521298180
Mg  0.0000001320  2.0062940260  9.6496759370
Mg  1.7375015900  1.0031470130  6.8181945700
Mg  1.7375015900  1.0031470130  1.4157406890
6
scale = 1.15000
Li  1.8164789350  1.0487446045  12.9123075595
Li  0.0000001380  2.0974892090  4.3041025160
Mg  0.0000001380  2.0974892090  15.7363175370
Mg  0.0000001380  2.0974892090  10.0882975705
Mg  1.8164789350  1.0487446045  7.1281125050
Mg  1.8164789350  1.0487446045  1.4800925385
6
scale = 1.20000
Li  1.8954562800  1.0943421960  13.4737122360
Li  0.0000001440  2.1886843920  4.4912374080
Mg  0.0000001440  2.1886843920  16.4205052560
Mg  0.0000001440  2.1886843920  10.5269192040
Mg  1.8954562800  1.0943421960  7.4380304400
Mg  1.8954562800  1.0943421960  1.5444443880
6
scale = 1.25000
Li  1.9744336250  1.1399397875  14.0351169125
Li  0.0000001500  2.2798795750  4.6783723000
Mg  0.0000001500  2.2798795750  17.1046929750
Mg  0.0000001500  2.2798795750  10.9655408375
Mg  1.9744336250  1.1399397875  7.7479483750
Mg  1.9744336250  1.1399397875  1.6087962375
6
scale = 1.30000
Li  2.0534109700  1.1855373790  14.5965215890
Li  0.0000001560  2.3710747580  4.8655071920
Mg  0.0000001560  2.3710747580  17.7888806940
Mg  0.0000001560  2.3710747580  11.4041624710
Mg  2.0534109700  1.1855373790  8.0578663100
Mg  2.0534109700  1.1855373790  1.6731480870
6
scale = 1.35000
Li  2.1323883150  1.2311349705  15.1579262655
Li  0.0000001620  2.4622699410  5.0526420840
Mg  0.0000001620  2.4622699410  18.4730684130
Mg  0.0000001620  2.4622699410  11.8427841045
Mg  2.1323883150  1.2311349705  8.3677842450
Mg  2.1323883150  1.2311349705  1.7374999365
6
scale = 1.40000
Li  2.2113656600  1.2767325620  15.7193309420
Li  0.0000001680  2.5534651240  5.2397769760
Mg  0.0000001680  2.5534651240  19.1572561320
Mg  0.0000001680  2.5534651240  12.2814057380
Mg  2.2113656600  1.2767325620  8.6777021800
Mg  2.2113656600  1.2767325620  1.8018517860
6
scale = 1.45000
Li  2.2903430050  1.3223301535  16.2807356185
Li  0.0000001740  2.6446603070  5.4269118680
Mg  0.0000001740  2.6446603070  19.8414438510
Mg  0.0000001740  2.6446603070  12.7200273715
Mg  2.2903430050  1.3223301535  8.9876201150
Mg  2.2903430050  1.3223301535  1.8662036355
6
scale = 1.50000
Li  2.3693203500  1.3679277450  16.8421402950
Li  0.0000001800  2.7358554900  5.6140467600
Mg  0.0000001800  2.7358554900  20.5256315700
Mg  0.0000001800  2.7358554900  13.1586490050
Mg  2.3693203500  1.3679277450  9.2975380500
Mg  2.3693203500  1.3679277450  1.9305554850
6
scale = 1.55000
Li  2.4482976950  1.4135253365  17.4035449715
Li  0.0000001860  2.8270506730  5.8011816520
Mg  0.0000001860  2.8270506730  21.2098192890
Mg  0.0000001860  2.8270506730  13.5972706385
Mg  2.4482976950  1.4135253365  9.6074559850
Mg  2.4482976950  1.4135253365  1.9949073345
6
scale = 1.60000
Li  2.5272750400  1.4591229280  17.9649496480
Li  0.0000001920  2.9182458560  5.9883165440
Mg  0.0000001920  2.9182458560  21.8940070080
Mg  0.0000001920  2.9182458560  14.0358922720
Mg  2.5272750400  1.4591229280  9.9173739200
Mg  2.5272750400  1.4591229280  2.0592591840
6
scale = 1.65000
Li  2.6062523850  1.5047205195  18.5263543245
Li  0.0000001980  3.0094410390  6.1754514360
Mg  0.0000001980  3.0094410390  22.5781947270
Mg  0.0000001980  3.0094410390  14.4745139055
Mg  2.6062523850  1.5047205195  10.2272918550
Mg  2.6062523850  1.5047205195  2.1236110335
6
scale = 1.70000
Li  2.6852297300  1.5503181110  19.0877590010
Li  0.0000002040  3.1006362220  6.3625863280
Mg  0.0000002040  3.1006362220  23.2623824460
Mg  0.0000002040  3.1006362220  14.9131355390
Mg  2.6852297300  1.5503181110  10.5372097900
Mg  2.6852297300  1.5503181110  2.1879628830
6
scale = 1.75000
Li  2.7642070750  1.5959157025  19.6491636775
Li  0.0000002100  3.1918314050  6.5497212200
Mg  0.0000002100  3.1918314050  23.9465701650
Mg  0.0000002100  3.1918314050  15.3517571725
Mg  2.7642070750  1.5959157025  10.8471277250
Mg  2.7642070750  1.5959157025  2.2523147325
6
scale = 1.80000
Li  2.8431844200  1.6415132940  20.2105683540
Li  0.0000002160  3.2830265880  6.7368561120
Mg  0.0000002160  3.2830265880  24.6307578840
Mg  0.0000002160  3.2830265880  15.7903788060
Mg  2.8431844200  1.6415132940  11.1570456600
Mg  2.8431844200  1.6415132940  2.3166665820
6
scale = 1.85000
Li  2.9221617650  1.6871108855  20.7719730305
Li  0.0000002220  3.3742217710  6.9239910040
Mg  0.0000002220  3.3742217710  25.3149456030
Mg  0.0000002220  3.3742217710  16.2290004395
Mg  2.9221617650  1.6871108855  11.4669635950
Mg  2.9221617650  1.6871108855  2.3810184315
6
scale = 1.90000
Li  3.0011391100  1.7327084770  21.3333777070
Li  0.0000002280  3.4654169540  7.1111258960
Mg  0.0000002280  3.4654169540  25.9991333220
Mg  0.0000002280  3.4654169540  16.6676220730
Mg  3.0011391100  1.7327084770  11.7768815300
Mg  3.0011391100  1.7327084770  2.4453702810
6
scale = 1.95000
Li  3.0801164550  1.7783060685  21.8947823835
Li  0.0000002340  3.5566121370  7.2982607880
Mg  0.0000002340  3.5566121370  26.6833210410
Mg  0.0000002340  3.5566121370  17.1062437065
Mg  3.0801164550  1.7783060685  12.0867994650
Mg  3.0801164550  1.7783060685  2.5097221305
6
scale = 2.00000
Li  3.1590938000  1.8239036600  22.4561870600
Li  0.0000002400  3.6478073200  7.4853956800
Mg  0.0000002400  3.6478073200  27.3675087600
Mg  0.0000002400  3.6478073200  17.5448653400
Mg  3.1590938000  1.8239036600  12.3967174000
Mg  3.1590938000  1.8239036600  2.5740739800
6
scale = 2.05000
Li  3.2380711450  1.8695012515  23.0175917365
Li  0.0000002460  3.7390025030  7.6725305720
Mg  0.0000002460  3.7390025030  28.0516964790
Mg  0.0000002460  3.7390025030  17.9834869735
Mg  3.2380711450  1.8695012515  12.7066353350
Mg  3.2380711450  1.8695012515  2.6384258295
6
scale = 2.10000
Li  3.3170484900  1.9150988430  23.5789964130
Li  0.0000002520  3.8301976860  7.8596654640
Mg  0.0000002520  3.8301976860  28.7358841980
Mg  0.0000002520  3.8301976860  18.4221086070
Mg  3.3170484900  1.9150988430  13.0165532700
Mg  3.3170484900  1.9150988430  2.7027776790
6
scale = 2.15000
Li  3.3960258350  1.9606964345  24.1404010895
Li  0.0000002580  3.9213928690  8.0468003560
Mg  0.0000002580  3.9213928690  29.4200719170
Mg  0.0000002580  3.9213928690  18.8607302405
Mg  3.3960258350  1.9606964345  13.3264712050
Mg  3.3960258350  1.9606964345  2.7671295285
6
scale = 2.20000
Li  3.4750031800  2.0062940260  24.7018057660
Li  0.0000002640  4.0125880520  8.2339352480
Mg  0.0000002640  4.0125880520  30.1042596360
Mg  0.0000002640  4.0125880520  19.2993518740
Mg  3.4750031800  2.0062940260  13.6363891400
Mg  3.4750031800  2.0062940260  2.8314813780
6
scale = 2.25000
Li  3.5539805250  2.0518916175  25.2632104425
Li  0.0000002700  4.1037832350  8.4210701400
Mg  0.0000002700  4.1037832350  30.7884473550
Mg  0.0000002700  4.1037832350  19.7379735075
Mg  3.5539805250  2.0518916175  13.9463070750
Mg  3.5539805250  2.0518916175  2.8958332275
6
scale = 2.30000
Li  3.6329578700  2.0974892090  25.8246151190
Li  0.0000002760  4.1949784180  8.6082050320
Mg  0.0000002760  4.1949784180  31.4726350740
Mg  0.0000002760  4.1949784180  20.1765951410
Mg  3.6329578700  2.0974892090  14.2562250100
Mg  3.6329578700  2.0974892090  2.9601850770
6
scale = 2.35000
Li  3.7119352150  2.1430868005  26.3860197955
Li  0.0000002820  4.2861736010  8.7953399240
Mg  0.0000002820  4.2861736010  32.1568227930
Mg  0.0000002820  4.2861736010  20.6152167745
Mg  3.7119352150  2.1430868005  14.5661429450
Mg  3.7119352150  2.1430868005  3.0245369265
6
scale = 2.40000
Li  3.7909125600  2.1886843920  26.9474244720
Li  0.0000002880  4.3773687840  8.9824748160
Mg  0.0000002880  4.3773687840  32.8410105120
Mg  0.0000002880  4.3773687840  21.0538384080
Mg  3.7909125600  2.1886843920  14.8760608800
Mg  3.7909125600  2.1886843920  3.0888887760
6
scale = 2.45000
Li  3.8698899050  2.2342819835  27.5088291485
Li  0.0000002940  4.4685639670  9.1696097080
Mg  0.0000002940  4.4685639670  33.5251982310
Mg  0.0000002940  4.4685639670  21.4924600415
Mg  3.8698899050  2.2342819835  15.1859788150
Mg  3.8698899050  2.2342819835  3.1532406255
