2
scale = 0.75000
Li  0.0000000000  0.0000000000  0.0000000000
Mg  1.6159480425  0.9888576450  5.3931092700
2
scale = 0.80000
Li  0.0000000000  0.0000000000  0.0000000000
Mg  1.7236779120  1.0547814880  5.7526498880
2
scale = 0.85000
Li  0.0000000000  0.0000000000  0.0000000000
Mg  1.8314077815  1.1207053310  6.1121905060
2
scale = 0.90000
Li  0.0000000000  0.0000000000  0.0000000000
Mg  1.9391376510  1.1866291740  6.4717311240
2
scale = 0.95000
Li  0.0000000000  0.0000000000  0.0000000000
Mg  2.0468675205  1.2525530170  6.8312717420
2
scale = 1.00000
Li  0.0000000000  0.0000000000  0.0000000000
Mg  2.1545973900  1.3184768600  7.1908123600
2
scale = 1.05000
Li  0.0000000000  0.0000000000  0.0000000000
Mg  2.2623272595  1.3844007030  7.5503529780
2
scale = 1.10000
Li  0.0000000000  0.0000000000  0.0000000000
Mg  2.3700571290  1.4503245460  7.9098935960
2
scale = 1.15000
Li  0.0000000000  0.0000000000  0.0000000000
Mg  2.4777869985  1.5162483890  8.2694342140
2
scale = 1.20000
Li  0.0000000000  0.0000000000  0.0000000000
Mg  2.5855168680  1.5821722320  8.6289748320
2
scale = 1.25000
Li  0.0000000000  0.0000000000  0.0000000000
Mg  2.6932467375  1.6480960750  8.9885154500
2
scale = 1.30000
Li  0.0000000000  0.0000000000  0.0000000000
Mg  2.8009766070  1.7140199180  9.3480560680
2
scale = 1.35000
Li  0.0000000000  0.0000000000  0.0000000000
Mg  2.9087064765  1.7799437610  9.7075966860
2
scale = 1.40000
Li  0.0000000000  0.0000000000  0.0000000000
Mg  3.0164363460  1.8458676040  10.0671373040
2
scale = 1.45000
Li  0.0000000000  0.0000000000  0.0000000000
Mg  3.1241662155  1.9117914470  10.4266779220
2
scale = 1.50000
Li  0.0000000000  0.0000000000  0.0000000000
Mg  3.2318960850  1.9777152900  10.7862185400
2
scale = 1.55000
Li  0.0000000000  0.0000000000  0.0000000000
Mg  3.3396259545  2.0436391330  11.1457591580
2
scale = 1.60000
Li  0.0000000000  0.0000000000  0.0000000000
Mg  3.4473558240  2.1095629760  11.5052997760
2
scale = 1.65000
Li  0.0000000000  0.0000000000  0.0000000000
Mg  3.5550856935  2.1754868190  11.8648403940
2
scale = 1.70000
Li  0.0000000000  0.0000000000  0.0000000000
Mg  3.6628155630  2.2414106620  12.2243810120
2
scale = 1.75000
Li  0.0000000000  0.0000000000  0.0000000000
Mg  3.7705454325  2.3073345050  12.5839216300
2
scale = 1.80000
Li  0.0000000000  0.0000000000  0.0000000000
Mg  3.8782753020  2.3732583480  12.9434622480
2
scale = 1.85000
Li  0.0000000000  0.0000000000  0.0000000000
Mg  3.9860051715  2.4391821910  13.3030028660
2
scale = 1.90000
Li  0.0000000000  0.0000000000  0.0000000000
Mg  4.0937350410  2.5051060340  13.6625434840
2
scale = 1.95000
Li  0.0000000000  0.0000000000  0.0000000000
Mg  4.2014649105  2.5710298770  14.0220841020
2
scale = 2.00000
Li  0.0000000000  0.0000000000  0.0000000000
Mg  4.3091947800  2.6369537200  14.3816247200
2
scale = 2.05000
Li  0.0000000000  0.0000000000  0.0000000000
Mg  4.4169246495  2.7028775630  14.7411653380
2
scale = 2.10000
Li  0.0000000000  0.0000000000  0.0000000000
Mg  4.5246545190  2.7688014060  15.1007059560
2
scale = 2.15000
Li  0.0000000000  0.0000000000  0.0000000000
Mg  4.6323843885  2.8347252490  15.4602465740
2
scale = 2.20000
Li  0.0000000000  0.0000000000  0.0000000000
Mg  4.7401142580  2.9006490920  15.8197871920
2
scale = 2.25000
Li  0.0000000000  0.0000000000  0.0000000000
Mg  4.8478441275  2.9665729350  16.1793278100
2
scale = 2.30000
Li  0.0000000000  0.0000000000  0.0000000000
Mg  4.9555739970  3.0324967780  16.5388684280
2
scale = 2.35000
Li  0.0000000000  0.0000000000  0.0000000000
Mg  5.0633038665  3.0984206210  16.8984090460
2
scale = 2.40000
Li  0.0000000000  0.0000000000  0.0000000000
Mg  5.1710337360  3.1643444640  17.2579496640
2
scale = 2.45000
Li  0.0000000000  0.0000000000  0.0000000000
Mg  5.2787636055  3.2302683070  17.6174902820
