6
scale = 0.75000
Li  7.1406706275  2.3991694425  2.7508193775
Li  4.6540031925  1.5636825750  5.3055036900
Li  7.2222679725  2.4265850475  5.3315968950
Mg  2.2673197275  0.7617889800  5.2228257225
Mg  2.2807109400  0.7662882525  2.8053123600
Mg  4.6390351050  1.5586534950  2.7518217975
6
scale = 0.80000
Li  7.6167153360  2.5591140720  2.9342073360
Li  4.9642700720  1.6679280800  5.6592039360
Li  7.7037525040  2.5883573840  5.6870366880
Mg  2.4184743760  0.8125749120  5.5710141040
Mg  2.4327583360  0.8173741360  2.9923331840
Mg  4.9483041120  1.6625637280  2.9352765840
6
scale = 0.85000
Li  8.0927600445  2.7190587015  3.1175952945
Li  5.2745369515  1.7721735850  6.0129041820
Li  8.1852370355  2.7501297205  6.0424764810
Mg  2.5696290245  0.8633608440  5.9192024855
Mg  2.5848057320  0.8684600195  3.1793540080
Mg  5.2575731190  1.7664739610  3.1187313705
6
scale = 0.90000
Li  8.5688047530  2.8790033310  3.3009832530
Li  5.5848038310  1.8764190900  6.3666044280
Li  8.6667215670  2.9119020570  6.3979162740
Mg  2.7207836730  0.9141467760  6.2673908670
Mg  2.7368531280  0.9195459030  3.3663748320
Mg  5.5668421260  1.8703841940  3.3021861570
6
scale = 0.95000
Li  9.0448494615  3.0389479605  3.4843712115
Li  5.8950707105  1.9806645950  6.7203046740
Li  9.1482060985  3.0736743935  6.7533560670
Mg  2.8719383215  0.9649327080  6.6155792485
Mg  2.8889005240  0.9706317865  3.5533956560
Mg  5.8761111330  1.9742944270  3.4856409435
6
scale = 1.00000
Li  9.5208941700  3.1988925900  3.6677591700
Li  6.2053375900  2.0849101000  7.0740049200
Li  9.6296906300  3.2354467300  7.1087958600
Mg  3.0230929700  1.0157186400  6.9637676300
Mg  3.0409479200  1.0217176700  3.7404164800
Mg  6.1853801400  2.0782046600  3.6690957300
6
scale = 1.05000
Li  9.9969388785  3.3588372195  3.8511471285
Li  6.5156044695  2.1891556050  7.4277051660
Li  10.1111751615  3.3972190665  7.4642356530
Mg  3.1742476185  1.0665045720  7.3119560115
Mg  3.1929953160  1.0728035535  3.9274373040
Mg  6.4946491470  2.1821148930  3.8525505165
6
scale = 1.10000
Li  10.4729835870  3.5187818490  4.0345350870
Li  6.8258713490  2.2934011100  7.7814054120
Li  10.5926596930  3.5589914030  7.8196754460
Mg  3.3254022670  1.1172905040  7.6601443930
Mg  3.3450427120  1.1238894370  4.1144581280
Mg  6.8039181540  2.2860251260  4.0360053030
6
scale = 1.15000
Li  10.9490282955  3.6787264785  4.2179230455
Li  7.1361382285  2.3976466150  8.1351056580
Li  11.0741442245  3.7207637395  8.1751152390
Mg  3.4765569155  1.1680764360  8.0083327745
Mg  3.4970901080  1.1749753205  4.3014789520
Mg  7.1131871610  2.3899353590  4.2194600895
6
scale = 1.20000
Li  11.4250730040  3.8386711080  4.4013110040
Li  7.4464051080  2.5018921200  8.4888059040
Li  11.5556287560  3.8825360760  8.5305550320
Mg  3.6277115640  1.2188623680  8.3565211560
Mg  3.6491375040  1.2260612040  4.4884997760
Mg  7.4224561680  2.4938455920  4.4029148760
6
scale = 1.25000
Li  11.9011177125  3.9986157375  4.5846989625
Li  7.7566719875  2.6061376250  8.8425061500
Li  12.0371132875  4.0443084125  8.8859948250
Mg  3.7788662125  1.2696483000  8.7047095375
Mg  3.8011849000  1.2771470875  4.6755206000
Mg  7.7317251750  2.5977558250  4.5863696625
6
scale = 1.30000
Li  12.3771624210  4.1585603670  4.7680869210
Li  8.0669388670  2.7103831300  9.1962063960
Li  12.5185978190  4.2060807490  9.2414346180
Mg  3.9300208610  1.3204342320  9.0528979190
Mg  3.9532322960  1.3282329710  4.8625414240
Mg  8.0409941820  2.7016660580  4.7698244490
6
scale = 1.35000
Li  12.8532071295  4.3185049965  4.9514748795
Li  8.3772057465  2.8146286350  9.5499066420
Li  13.0000823505  4.3678530855  9.5968744110
Mg  4.0811755095  1.3712201640  9.4010863005
Mg  4.1052796920  1.3793188545  5.0495622480
Mg  8.3502631890  2.8055762910  4.9532792355
6
scale = 1.40000
Li  13.3292518380  4.4784496260  5.1348628380
Li  8.6874726260  2.9188741400  9.9036068880
Li  13.4815668820  4.5296254220  9.9523142040
Mg  4.2323301580  1.4220060960  9.7492746820
Mg  4.2573270880  1.4304047380  5.2365830720
Mg  8.6595321960  2.9094865240  5.1367340220
6
scale = 1.45000
Li  13.8052965465  4.6383942555  5.3182507965
Li  8.9977395055  3.0231196450  10.2573071340
Li  13.9630514135  4.6913977585  10.3077539970
Mg  4.3834848065  1.4727920280  10.0974630635
Mg  4.4093744840  1.4814906215  5.4236038960
Mg  8.9688012030  3.0133967570  5.3201888085
6
scale = 1.50000
Li  14.2813412550  4.7983388850  5.5016387550
Li  9.3080063850  3.1273651500  10.6110073800
Li  14.4445359450  4.8531700950  10.6631937900
Mg  4.5346394550  1.5235779600  10.4456514450
Mg  4.5614218800  1.5325765050  5.6106247200
Mg  9.2780702100  3.1173069900  5.5036435950
6
scale = 1.55000
Li  14.7573859635  4.9582835145  5.6850267135
Li  9.6182732645  3.2316106550  10.9647076260
Li  14.9260204765  5.0149424315  11.0186335830
Mg  4.6857941035  1.5743638920  10.7938398265
Mg  4.7134692760  1.5836623885  5.7976455440
Mg  9.5873392170  3.2212172230  5.6870983815
6
scale = 1.60000
Li  15.2334306720  5.1182281440  5.8684146720
Li  9.9285401440  3.3358561600  11.3184078720
Li  15.4075050080  5.1767147680  11.3740733760
Mg  4.8369487520  1.6251498240  11.1420282080
Mg  4.8655166720  1.6347482720  5.9846663680
Mg  9.8966082240  3.3251274560  5.8705531680
6
scale = 1.65000
Li  15.7094753805  5.2781727735  6.0518026305
Li  10.2388070235  3.4401016650  11.6721081180
Li  15.8889895395  5.3384871045  11.7295131690
Mg  4.9881034005  1.6759357560  11.4902165895
Mg  5.0175640680  1.6858341555  6.1716871920
Mg  10.2058772310  3.4290376890  6.0540079545
6
scale = 1.70000
Li  16.1855200890  5.4381174030  6.2351905890
Li  10.5490739030  3.5443471700  12.0258083640
Li  16.3704740710  5.5002594410  12.0849529620
Mg  5.1392580490  1.7267216880  11.8384049710
Mg  5.1696114640  1.7369200390  6.3587080160
Mg  10.5151462380  3.5329479220  6.2374627410
6
scale = 1.75000
Li  16.6615647975  5.5980620325  6.4185785475
Li  10.8593407825  3.6485926750  12.3795086100
Li  16.8519586025  5.6620317775  12.4403927550
Mg  5.2904126975  1.7775076200  12.1865933525
Mg  5.3216588600  1.7880059225  6.5457288400
Mg  10.8244152450  3.6368581550  6.4209175275
6
scale = 1.80000
Li  17.1376095060  5.7580066620  6.6019665060
Li  11.1696076620  3.7528381800  12.7332088560
Li  17.3334431340  5.8238041140  12.7958325480
Mg  5.4415673460  1.8282935520  12.5347817340
Mg  5.4737062560  1.8390918060  6.7327496640
Mg  11.1336842520  3.7407683880  6.6043723140
6
scale = 1.85000
Li  17.6136542145  5.9179512915  6.7853544645
Li  11.4798745415  3.8570836850  13.0869091020
Li  17.8149276655  5.9855764505  13.1512723410
Mg  5.5927219945  1.8790794840  12.8829701155
Mg  5.6257536520  1.8901776895  6.9197704880
Mg  11.4429532590  3.8446786210  6.7878271005
6
scale = 1.90000
Li  18.0896989230  6.0778959210  6.9687424230
Li  11.7901414210  3.9613291900  13.4406093480
Li  18.2964121970  6.1473487870  13.5067121340
Mg  5.7438766430  1.9298654160  13.2311584970
Mg  5.7778010480  1.9412635730  7.1067913120
Mg  11.7522222660  3.9485888540  6.9712818870
6
scale = 1.95000
Li  18.5657436315  6.2378405505  7.1521303815
Li  12.1004083005  4.0655746950  13.7943095940
Li  18.7778967285  6.3091211235  13.8621519270
Mg  5.8950312915  1.9806513480  13.5793468785
Mg  5.9298484440  1.9923494565  7.2938121360
Mg  12.0614912730  4.0524990870  7.1547366735
6
scale = 2.00000
Li  19.0417883400  6.3977851800  7.3355183400
Li  12.4106751800  4.1698202000  14.1480098400
Li  19.2593812600  6.4708934600  14.2175917200
Mg  6.0461859400  2.0314372800  13.9275352600
Mg  6.0818958400  2.0434353400  7.4808329600
Mg  12.3707602800  4.1564093200  7.3381914600
6
scale = 2.05000
Li  19.5178330485  6.5577298095  7.5189062985
Li  12.7209420595  4.2740657050  14.5017100860
Li  19.7408657915  6.6326657965  14.5730315130
Mg  6.1973405885  2.0822232120  14.2757236415
Mg  6.2339432360  2.0945212235  7.6678537840
Mg  12.6800292870  4.2603195530  7.5216462465
6
scale = 2.10000
Li  19.9938777570  6.7176744390  7.7022942570
Li  13.0312089390  4.3783112100  14.8554103320
Li  20.2223503230  6.7944381330  14.9284713060
Mg  6.3484952370  2.1330091440  14.6239120230
Mg  6.3859906320  2.1456071070  7.8548746080
Mg  12.9892982940  4.3642297860  7.7051010330
6
scale = 2.15000
Li  20.4699224655  6.8776190685  7.8856822155
Li  13.3414758185  4.4825567150  15.2091105780
Li  20.7038348545  6.9562104695  15.2839110990
Mg  6.4996498855  2.1837950760  14.9721004045
Mg  6.5380380280  2.1966929905  8.0418954320
Mg  13.2985673010  4.4681400190  7.8885558195
6
scale = 2.20000
Li  20.9459671740  7.0375636980  8.0690701740
Li  13.6517426980  4.5868022200  15.5628108240
Li  21.1853193860  7.1179828060  15.6393508920
Mg  6.6508045340  2.2345810080  15.3202887860
Mg  6.6900854240  2.2477788740  8.2289162560
Mg  13.6078363080  4.5720502520  8.0720106060
6
scale = 2.25000
Li  21.4220118825  7.1975083275  8.2524581325
Li  13.9620095775  4.6910477250  15.9165110700
Li  21.6668039175  7.2797551425  15.9947906850
Mg  6.8019591825  2.2853669400  15.6684771675
Mg  6.8421328200  2.2988647575  8.4159370800
Mg  13.9171053150  4.6759604850  8.2554653925
6
scale = 2.30000
Li  21.8980565910  7.3574529570  8.4358460910
Li  14.2722764570  4.7952932300  16.2702113160
Li  22.1482884490  7.4415274790  16.3502304780
Mg  6.9531138310  2.3361528720  16.0166655490
Mg  6.9941802160  2.3499506410  8.6029579040
Mg  14.2263743220  4.7798707180  8.4389201790
6
scale = 2.35000
Li  22.3741012995  7.5173975865  8.6192340495
Li  14.5825433365  4.8995387350  16.6239115620
Li  22.6297729805  7.6032998155  16.7056702710
Mg  7.1042684795  2.3869388040  16.3648539305
Mg  7.1462276120  2.4010365245  8.7899787280
Mg  14.5356433290  4.8837809510  8.6223749655
6
scale = 2.40000
Li  22.8501460080  7.6773422160  8.8026220080
Li  14.8928102160  5.0037842400  16.9776118080
Li  23.1112575120  7.7650721520  17.0611100640
Mg  7.2554231280  2.4377247360  16.7130423120
Mg  7.2982750080  2.4521224080  8.9769995520
Mg  14.8449123360  4.9876911840  8.8058297520
6
scale = 2.45000
Li  23.3261907165  7.8372868455  8.9860099665
Li  15.2030770955  5.1080297450  17.3313120540
Li  23.5927420435  7.9268444885  17.4165498570
Mg  7.4065777765  2.4885106680  17.0612306935
Mg  7.4503224040  2.5032082915  9.1640203760
Mg  15.1541813430  5.0916014170  8.9892845385
