6
scale = 0.75000
Li  -2.4265589175  1.6527723825  0.9636847650
Li  2.8654379175  0.6396172950  2.8910542875
Mg  1.5902218425  0.8837579700  0.9636847650
Mg  5.5221770775  0.1309834350  0.9636847650
Mg  -5.0832980775  2.1614062500  2.8910542875
Mg  -1.1513428425  1.4086317150  2.8910542875
6
scale = 0.80000
Li  -2.5883295120  1.7629572080  1.0279304160
Li  3.0564671120  0.6822584480  3.0837912400
Mg  1.6962366320  0.9426751680  1.0279304160
Mg  5.8903222160  0.1397156640  1.0279304160
Mg  -5.4221846160  2.3055000000  3.0837912400
Mg  -1.2280990320  1.5025404960  3.0837912400
6
scale = 0.85000
Li  -2.7501001065  1.8731420335  1.0921760670
Li  3.2474963065  0.7248996010  3.2765281925
Mg  1.8022514215  1.0015923660  1.0921760670
Mg  6.2584673545  0.1484478930  1.0921760670
Mg  -5.7610711545  2.4495937500  3.2765281925
Mg  -1.3048552215  1.5964492770  3.2765281925
6
scale = 0.90000
Li  -2.9118707010  1.9833268590  1.1564217180
Li  3.4385255010  0.7675407540  3.4692651450
Mg  1.9082662110  1.0605095640  1.1564217180
Mg  6.6266124930  0.1571801220  1.1564217180
Mg  -6.0999576930  2.5936875000  3.4692651450
Mg  -1.3816114110  1.6903580580  3.4692651450
6
scale = 0.95000
Li  -3.0736412955  2.0935116845  1.2206673690
Li  3.6295546955  0.8101819070  3.6620020975
Mg  2.0142810005  1.1194267620  1.2206673690
Mg  6.9947576315  0.1659123510  1.2206673690
Mg  -6.4388442315  2.7377812500  3.6620020975
Mg  -1.4583676005  1.7842668390  3.6620020975
6
scale = 1.00000
Li  -3.2354118900  2.2036965100  1.2849130200
Li  3.8205838900  0.8528230600  3.8547390500
Mg  2.1202957900  1.1783439600  1.2849130200
Mg  7.3629027700  0.1746445800  1.2849130200
Mg  -6.7777307700  2.8818750000  3.8547390500
Mg  -1.5351237900  1.8781756200  3.8547390500
6
scale = 1.05000
Li  -3.3971824845  2.3138813355  1.3491586710
Li  4.0116130845  0.8954642130  4.0474760025
Mg  2.2263105795  1.2372611580  1.3491586710
Mg  7.7310479085  0.1833768090  1.3491586710
Mg  -7.1166173085  3.0259687500  4.0474760025
Mg  -1.6118799795  1.9720844010  4.0474760025
6
scale = 1.10000
Li  -3.5589530790  2.4240661610  1.4134043220
Li  4.2026422790  0.9381053660  4.2402129550
Mg  2.3323253690  1.2961783560  1.4134043220
Mg  8.0991930470  0.1921090380  1.4134043220
Mg  -7.4555038470  3.1700625000  4.2402129550
Mg  -1.6886361690  2.0659931820  4.2402129550
6
scale = 1.15000
Li  -3.7207236735  2.5342509865  1.4776499730
Li  4.3936714735  0.9807465190  4.4329499075
Mg  2.4383401585  1.3550955540  1.4776499730
Mg  8.4673381855  0.2008412670  1.4776499730
Mg  -7.7943903855  3.3141562500  4.4329499075
Mg  -1.7653923585  2.1599019630  4.4329499075
6
scale = 1.20000
Li  -3.8824942680  2.6444358120  1.5418956240
Li  4.5847006680  1.0233876720  4.6256868600
Mg  2.5443549480  1.4140127520  1.5418956240
Mg  8.8354833240  0.2095734960  1.5418956240
Mg  -8.1332769240  3.4582500000  4.6256868600
Mg  -1.8421485480  2.2538107440  4.6256868600
6
scale = 1.25000
Li  -4.0442648625  2.7546206375  1.6061412750
Li  4.7757298625  1.0660288250  4.8184238125
Mg  2.6503697375  1.4729299500  1.6061412750
Mg  9.2036284625  0.2183057250  1.6061412750
Mg  -8.4721634625  3.6023437500  4.8184238125
Mg  -1.9189047375  2.3477195250  4.8184238125
6
scale = 1.30000
Li  -4.2060354570  2.8648054630  1.6703869260
Li  4.9667590570  1.1086699780  5.0111607650
Mg  2.7563845270  1.5318471480  1.6703869260
Mg  9.5717736010  0.2270379540  1.6703869260
Mg  -8.8110500010  3.7464375000  5.0111607650
Mg  -1.9956609270  2.4416283060  5.0111607650
6
scale = 1.35000
Li  -4.3678060515  2.9749902885  1.7346325770
Li  5.1577882515  1.1513111310  5.2038977175
Mg  2.8623993165  1.5907643460  1.7346325770
Mg  9.9399187395  0.2357701830  1.7346325770
Mg  -9.1499365395  3.8905312500  5.2038977175
Mg  -2.0724171165  2.5355370870  5.2038977175
6
scale = 1.40000
Li  -4.5295766460  3.0851751140  1.7988782280
Li  5.3488174460  1.1939522840  5.3966346700
Mg  2.9684141060  1.6496815440  1.7988782280
Mg  10.3080638780  0.2445024120  1.7988782280
Mg  -9.4888230780  4.0346250000  5.3966346700
Mg  -2.1491733060  2.6294458680  5.3966346700
6
scale = 1.45000
Li  -4.6913472405  3.1953599395  1.8631238790
Li  5.5398466405  1.2365934370  5.5893716225
Mg  3.0744288955  1.7085987420  1.8631238790
Mg  10.6762090165  0.2532346410  1.8631238790
Mg  -9.8277096165  4.1787187500  5.5893716225
Mg  -2.2259294955  2.7233546490  5.5893716225
6
scale = 1.50000
Li  -4.8531178350  3.3055447650  1.9273695300
Li  5.7308758350  1.2792345900  5.7821085750
Mg  3.1804436850  1.7675159400  1.9273695300
Mg  11.0443541550  0.2619668700  1.9273695300
Mg  -10.1665961550  4.3228125000  5.7821085750
Mg  -2.3026856850  2.8172634300  5.7821085750
6
scale = 1.55000
Li  -5.0148884295  3.4157295905  1.9916151810
Li  5.9219050295  1.3218757430  5.9748455275
Mg  3.2864584745  1.8264331380  1.9916151810
Mg  11.4124992935  0.2706990990  1.9916151810
Mg  -10.5054826935  4.4669062500  5.9748455275
Mg  -2.3794418745  2.9111722110  5.9748455275
6
scale = 1.60000
Li  -5.1766590240  3.5259144160  2.0558608320
Li  6.1129342240  1.3645168960  6.1675824800
Mg  3.3924732640  1.8853503360  2.0558608320
Mg  11.7806444320  0.2794313280  2.0558608320
Mg  -10.8443692320  4.6110000000  6.1675824800
Mg  -2.4561980640  3.0050809920  6.1675824800
6
scale = 1.65000
Li  -5.3384296185  3.6360992415  2.1201064830
Li  6.3039634185  1.4071580490  6.3603194325
Mg  3.4984880535  1.9442675340  2.1201064830
Mg  12.1487895705  0.2881635570  2.1201064830
Mg  -11.1832557705  4.7550937500  6.3603194325
Mg  -2.5329542535  3.0989897730  6.3603194325
6
scale = 1.70000
Li  -5.5002002130  3.7462840670  2.1843521340
Li  6.4949926130  1.4497992020  6.5530563850
Mg  3.6045028430  2.0031847320  2.1843521340
Mg  12.5169347090  0.2968957860  2.1843521340
Mg  -11.5221423090  4.8991875000  6.5530563850
Mg  -2.6097104430  3.1928985540  6.5530563850
6
scale = 1.75000
Li  -5.6619708075  3.8564688925  2.2485977850
Li  6.6860218075  1.4924403550  6.7457933375
Mg  3.7105176325  2.0621019300  2.2485977850
Mg  12.8850798475  0.3056280150  2.2485977850
Mg  -11.8610288475  5.0432812500  6.7457933375
Mg  -2.6864666325  3.2868073350  6.7457933375
6
scale = 1.80000
Li  -5.8237414020  3.9666537180  2.3128434360
Li  6.8770510020  1.5350815080  6.9385302900
Mg  3.8165324220  2.1210191280  2.3128434360
Mg  13.2532249860  0.3143602440  2.3128434360
Mg  -12.1999153860  5.1873750000  6.9385302900
Mg  -2.7632228220  3.3807161160  6.9385302900
6
scale = 1.85000
Li  -5.9855119965  4.0768385435  2.3770890870
Li  7.0680801965  1.5777226610  7.1312672425
Mg  3.9225472115  2.1799363260  2.3770890870
Mg  13.6213701245  0.3230924730  2.3770890870
Mg  -12.5388019245  5.3314687500  7.1312672425
Mg  -2.8399790115  3.4746248970  7.1312672425
6
scale = 1.90000
Li  -6.1472825910  4.1870233690  2.4413347380
Li  7.2591093910  1.6203638140  7.3240041950
Mg  4.0285620010  2.2388535240  2.4413347380
Mg  13.9895152630  0.3318247020  2.4413347380
Mg  -12.8776884630  5.4755625000  7.3240041950
Mg  -2.9167352010  3.5685336780  7.3240041950
6
scale = 1.95000
Li  -6.3090531855  4.2972081945  2.5055803890
Li  7.4501385855  1.6630049670  7.5167411475
Mg  4.1345767905  2.2977707220  2.5055803890
Mg  14.3576604015  0.3405569310  2.5055803890
Mg  -13.2165750015  5.6196562500  7.5167411475
Mg  -2.9934913905  3.6624424590  7.5167411475
6
scale = 2.00000
Li  -6.4708237800  4.4073930200  2.5698260400
Li  7.6411677800  1.7056461200  7.7094781000
Mg  4.2405915800  2.3566879200  2.5698260400
Mg  14.7258055400  0.3492891600  2.5698260400
Mg  -13.5554615400  5.7637500000  7.7094781000
Mg  -3.0702475800  3.7563512400  7.7094781000
6
scale = 2.05000
Li  -6.6325943745  4.5175778455  2.6340716910
Li  7.8321969745  1.7482872730  7.9022150525
Mg  4.3466063695  2.4156051180  2.6340716910
Mg  15.0939506785  0.3580213890  2.6340716910
Mg  -13.8943480785  5.9078437500  7.9022150525
Mg  -3.1470037695  3.8502600210  7.9022150525
6
scale = 2.10000
Li  -6.7943649690  4.6277626710  2.6983173420
Li  8.0232261690  1.7909284260  8.0949520050
Mg  4.4526211590  2.4745223160  2.6983173420
Mg  15.4620958170  0.3667536180  2.6983173420
Mg  -14.2332346170  6.0519375000  8.0949520050
Mg  -3.2237599590  3.9441688020  8.0949520050
6
scale = 2.15000
Li  -6.9561355635  4.7379474965  2.7625629930
Li  8.2142553635  1.8335695790  8.2876889575
Mg  4.5586359485  2.5334395140  2.7625629930
Mg  15.8302409555  0.3754858470  2.7625629930
Mg  -14.5721211555  6.1960312500  8.2876889575
Mg  -3.3005161485  4.0380775830  8.2876889575
6
scale = 2.20000
Li  -7.1179061580  4.8481323220  2.8268086440
Li  8.4052845580  1.8762107320  8.4804259100
Mg  4.6646507380  2.5923567120  2.8268086440
Mg  16.1983860940  0.3842180760  2.8268086440
Mg  -14.9110076940  6.3401250000  8.4804259100
Mg  -3.3772723380  4.1319863640  8.4804259100
6
scale = 2.25000
Li  -7.2796767525  4.9583171475  2.8910542950
Li  8.5963137525  1.9188518850  8.6731628625
Mg  4.7706655275  2.6512739100  2.8910542950
Mg  16.5665312325  0.3929503050  2.8910542950
Mg  -15.2498942325  6.4842187500  8.6731628625
Mg  -3.4540285275  4.2258951450  8.6731628625
6
scale = 2.30000
Li  -7.4414473470  5.0685019730  2.9552999460
Li  8.7873429470  1.9614930380  8.8658998150
Mg  4.8766803170  2.7101911080  2.9552999460
Mg  16.9346763710  0.4016825340  2.9552999460
Mg  -15.5887807710  6.6283125000  8.8658998150
Mg  -3.5307847170  4.3198039260  8.8658998150
6
scale = 2.35000
Li  -7.6032179415  5.1786867985  3.0195455970
Li  8.9783721415  2.0041341910  9.0586367675
Mg  4.9826951065  2.7691083060  3.0195455970
Mg  17.3028215095  0.4104147630  3.0195455970
Mg  -15.9276673095  6.7724062500  9.0586367675
Mg  -3.6075409065  4.4137127070  9.0586367675
6
scale = 2.40000
Li  -7.7649885360  5.2888716240  3.0837912480
Li  9.1694013360  2.0467753440  9.2513737200
Mg  5.0887098960  2.8280255040  3.0837912480
Mg  17.6709666480  0.4191469920  3.0837912480
Mg  -16.2665538480  6.9165000000  9.2513737200
Mg  -3.6842970960  4.5076214880  9.2513737200
6
scale = 2.45000
Li  -7.9267591305  5.3990564495  3.1480368990
Li  9.3604305305  2.0894164970  9.4441106725
Mg  5.1947246855  2.8869427020  3.1480368990
Mg  18.0391117865  0.4278792210  3.1480368990
Mg  -16.6054403865  7.0605937500  9.4441106725
Mg  -3.7610532855  4.6015302690  9.4441106725
