6
scale = 0.75000
Li  2.3709161025  0.7602342750  0.0000000000
Li  0.5574323550  1.1800091475  1.8373414425
Li  4.2012243600  0.3365649675  1.8373414425
Mg  -4.7364984525  2.4054180450  0.0000000000
Mg  -1.2563663625  1.5998569275  0.0000000000
Mg  -2.9894524500  2.0010218025  1.8373414425
6
scale = 0.80000
Li  2.5289771760  0.8109165600  0.0000000000
Li  0.5945945120  1.2586764240  1.9598308720
Li  4.4813059840  0.3590026320  1.9598308720
Mg  -5.0522650160  2.5657792480  0.0000000000
Mg  -1.3401241200  1.7065140560  0.0000000000
Mg  -3.1887492800  2.1344232560  1.9598308720
6
scale = 0.85000
Li  2.6870382495  0.8615988450  0.0000000000
Li  0.6317566690  1.3373437005  2.0823203015
Li  4.7613876080  0.3814402965  2.0823203015
Mg  -5.3680315795  2.7261404510  0.0000000000
Mg  -1.4238818775  1.8131711845  0.0000000000
Mg  -3.3880461100  2.2678247095  2.0823203015
6
scale = 0.90000
Li  2.8450993230  0.9122811300  0.0000000000
Li  0.6689188260  1.4160109770  2.2048097310
Li  5.0414692320  0.4038779610  2.2048097310
Mg  -5.6837981430  2.8865016540  0.0000000000
Mg  -1.5076396350  1.9198283130  0.0000000000
Mg  -3.5873429400  2.4012261630  2.2048097310
6
scale = 0.95000
Li  3.0031603965  0.9629634150  0.0000000000
Li  0.7060809830  1.4946782535  2.3272991605
Li  5.3215508560  0.4263156255  2.3272991605
Mg  -5.9995647065  3.0468628570  0.0000000000
Mg  -1.5913973925  2.0264854415  0.0000000000
Mg  -3.7866397700  2.5346276165  2.3272991605
6
scale = 1.00000
Li  3.1612214700  1.0136457000  0.0000000000
Li  0.7432431400  1.5733455300  2.4497885900
Li  5.6016324800  0.4487532900  2.4497885900
Mg  -6.3153312700  3.2072240600  0.0000000000
Mg  -1.6751551500  2.1331425700  0.0000000000
Mg  -3.9859366000  2.6680290700  2.4497885900
6
scale = 1.05000
Li  3.3192825435  1.0643279850  0.0000000000
Li  0.7804052970  1.6520128065  2.5722780195
Li  5.8817141040  0.4711909545  2.5722780195
Mg  -6.6310978335  3.3675852630  0.0000000000
Mg  -1.7589129075  2.2397996985  0.0000000000
Mg  -4.1852334300  2.8014305235  2.5722780195
6
scale = 1.10000
Li  3.4773436170  1.1150102700  0.0000000000
Li  0.8175674540  1.7306800830  2.6947674490
Li  6.1617957280  0.4936286190  2.6947674490
Mg  -6.9468643970  3.5279464660  0.0000000000
Mg  -1.8426706650  2.3464568270  0.0000000000
Mg  -4.3845302600  2.9348319770  2.6947674490
6
scale = 1.15000
Li  3.6354046905  1.1656925550  0.0000000000
Li  0.8547296110  1.8093473595  2.8172568785
Li  6.4418773520  0.5160662835  2.8172568785
Mg  -7.2626309605  3.6883076690  0.0000000000
Mg  -1.9264284225  2.4531139555  0.0000000000
Mg  -4.5838270900  3.0682334305  2.8172568785
6
scale = 1.20000
Li  3.7934657640  1.2163748400  0.0000000000
Li  0.8918917680  1.8880146360  2.9397463080
Li  6.7219589760  0.5385039480  2.9397463080
Mg  -7.5783975240  3.8486688720  0.0000000000
Mg  -2.0101861800  2.5597710840  0.0000000000
Mg  -4.7831239200  3.2016348840  2.9397463080
6
scale = 1.25000
Li  3.9515268375  1.2670571250  0.0000000000
Li  0.9290539250  1.9666819125  3.0622357375
Li  7.0020406000  0.5609416125  3.0622357375
Mg  -7.8941640875  4.0090300750  0.0000000000
Mg  -2.0939439375  2.6664282125  0.0000000000
Mg  -4.9824207500  3.3350363375  3.0622357375
6
scale = 1.30000
Li  4.1095879110  1.3177394100  0.0000000000
Li  0.9662160820  2.0453491890  3.1847251670
Li  7.2821222240  0.5833792770  3.1847251670
Mg  -8.2099306510  4.1693912780  0.0000000000
Mg  -2.1777016950  2.7730853410  0.0000000000
Mg  -5.1817175800  3.4684377910  3.1847251670
6
scale = 1.35000
Li  4.2676489845  1.3684216950  0.0000000000
Li  1.0033782390  2.1240164655  3.3072145965
Li  7.5622038480  0.6058169415  3.3072145965
Mg  -8.5256972145  4.3297524810  0.0000000000
Mg  -2.2614594525  2.8797424695  0.0000000000
Mg  -5.3810144100  3.6018392445  3.3072145965
6
scale = 1.40000
Li  4.4257100580  1.4191039800  0.0000000000
Li  1.0405403960  2.2026837420  3.4297040260
Li  7.8422854720  0.6282546060  3.4297040260
Mg  -8.8414637780  4.4901136840  0.0000000000
Mg  -2.3452172100  2.9863995980  0.0000000000
Mg  -5.5803112400  3.7352406980  3.4297040260
6
scale = 1.45000
Li  4.5837711315  1.4697862650  0.0000000000
Li  1.0777025530  2.2813510185  3.5521934555
Li  8.1223670960  0.6506922705  3.5521934555
Mg  -9.1572303415  4.6504748870  0.0000000000
Mg  -2.4289749675  3.0930567265  0.0000000000
Mg  -5.7796080700  3.8686421515  3.5521934555
6
scale = 1.50000
Li  4.7418322050  1.5204685500  0.0000000000
Li  1.1148647100  2.3600182950  3.6746828850
Li  8.4024487200  0.6731299350  3.6746828850
Mg  -9.4729969050  4.8108360900  0.0000000000
Mg  -2.5127327250  3.1997138550  0.0000000000
Mg  -5.9789049000  4.0020436050  3.6746828850
6
scale = 1.55000
Li  4.8998932785  1.5711508350  0.0000000000
Li  1.1520268670  2.4386855715  3.7971723145
Li  8.6825303440  0.6955675995  3.7971723145
Mg  -9.7887634685  4.9711972930  0.0000000000
Mg  -2.5964904825  3.3063709835  0.0000000000
Mg  -6.1782017300  4.1354450585  3.7971723145
6
scale = 1.60000
Li  5.0579543520  1.6218331200  0.0000000000
Li  1.1891890240  2.5173528480  3.9196617440
Li  8.9626119680  0.7180052640  3.9196617440
Mg  -10.1045300320  5.1315584960  0.0000000000
Mg  -2.6802482400  3.4130281120  0.0000000000
Mg  -6.3774985600  4.2688465120  3.9196617440
6
scale = 1.65000
Li  5.2160154255  1.6725154050  0.0000000000
Li  1.2263511810  2.5960201245  4.0421511735
Li  9.2426935920  0.7404429285  4.0421511735
Mg  -10.4202965955  5.2919196990  0.0000000000
Mg  -2.7640059975  3.5196852405  0.0000000000
Mg  -6.5767953900  4.4022479655  4.0421511735
6
scale = 1.70000
Li  5.3740764990  1.7231976900  0.0000000000
Li  1.2635133380  2.6746874010  4.1646406030
Li  9.5227752160  0.7628805930  4.1646406030
Mg  -10.7360631590  5.4522809020  0.0000000000
Mg  -2.8477637550  3.6263423690  0.0000000000
Mg  -6.7760922200  4.5356494190  4.1646406030
6
scale = 1.75000
Li  5.5321375725  1.7738799750  0.0000000000
Li  1.3006754950  2.7533546775  4.2871300325
Li  9.8028568400  0.7853182575  4.2871300325
Mg  -11.0518297225  5.6126421050  0.0000000000
Mg  -2.9315215125  3.7329994975  0.0000000000
Mg  -6.9753890500  4.6690508725  4.2871300325
6
scale = 1.80000
Li  5.6901986460  1.8245622600  0.0000000000
Li  1.3378376520  2.8320219540  4.4096194620
Li  10.0829384640  0.8077559220  4.4096194620
Mg  -11.3675962860  5.7730033080  0.0000000000
Mg  -3.0152792700  3.8396566260  0.0000000000
Mg  -7.1746858800  4.8024523260  4.4096194620
6
scale = 1.85000
Li  5.8482597195  1.8752445450  0.0000000000
Li  1.3749998090  2.9106892305  4.5321088915
Li  10.3630200880  0.8301935865  4.5321088915
Mg  -11.6833628495  5.9333645110  0.0000000000
Mg  -3.0990370275  3.9463137545  0.0000000000
Mg  -7.3739827100  4.9358537795  4.5321088915
6
scale = 1.90000
Li  6.0063207930  1.9259268300  0.0000000000
Li  1.4121619660  2.9893565070  4.6545983210
Li  10.6431017120  0.8526312510  4.6545983210
Mg  -11.9991294130  6.0937257140  0.0000000000
Mg  -3.1827947850  4.0529708830  0.0000000000
Mg  -7.5732795400  5.0692552330  4.6545983210
6
scale = 1.95000
Li  6.1643818665  1.9766091150  0.0000000000
Li  1.4493241230  3.0680237835  4.7770877505
Li  10.9231833360  0.8750689155  4.7770877505
Mg  -12.3148959765  6.2540869170  0.0000000000
Mg  -3.2665525425  4.1596280115  0.0000000000
Mg  -7.7725763700  5.2026566865  4.7770877505
6
scale = 2.00000
Li  6.3224429400  2.0272914000  0.0000000000
Li  1.4864862800  3.1466910600  4.8995771800
Li  11.2032649600  0.8975065800  4.8995771800
Mg  -12.6306625400  6.4144481200  0.0000000000
Mg  -3.3503103000  4.2662851400  0.0000000000
Mg  -7.9718732000  5.3360581400  4.8995771800
6
scale = 2.05000
Li  6.4805040135  2.0779736850  0.0000000000
Li  1.5236484370  3.2253583365  5.0220666095
Li  11.4833465840  0.9199442445  5.0220666095
Mg  -12.9464291035  6.5748093230  0.0000000000
Mg  -3.4340680575  4.3729422685  0.0000000000
Mg  -8.1711700300  5.4694595935  5.0220666095
6
scale = 2.10000
Li  6.6385650870  2.1286559700  0.0000000000
Li  1.5608105940  3.3040256130  5.1445560390
Li  11.7634282080  0.9423819090  5.1445560390
Mg  -13.2621956670  6.7351705260  0.0000000000
Mg  -3.5178258150  4.4795993970  0.0000000000
Mg  -8.3704668600  5.6028610470  5.1445560390
6
scale = 2.15000
Li  6.7966261605  2.1793382550  0.0000000000
Li  1.5979727510  3.3826928895  5.2670454685
Li  12.0435098320  0.9648195735  5.2670454685
Mg  -13.5779622305  6.8955317290  0.0000000000
Mg  -3.6015835725  4.5862565255  0.0000000000
Mg  -8.5697636900  5.7362625005  5.2670454685
6
scale = 2.20000
Li  6.9546872340  2.2300205400  0.0000000000
Li  1.6351349080  3.4613601660  5.3895348980
Li  12.3235914560  0.9872572380  5.3895348980
Mg  -13.8937287940  7.0558929320  0.0000000000
Mg  -3.6853413300  4.6929136540  0.0000000000
Mg  -8.7690605200  5.8696639540  5.3895348980
6
scale = 2.25000
Li  7.1127483075  2.2807028250  0.0000000000
Li  1.6722970650  3.5400274425  5.5120243275
Li  12.6036730800  1.0096949025  5.5120243275
Mg  -14.2094953575  7.2162541350  0.0000000000
Mg  -3.7690990875  4.7995707825  0.0000000000
Mg  -8.9683573500  6.0030654075  5.5120243275
6
scale = 2.30000
Li  7.2708093810  2.3313851100  0.0000000000
Li  1.7094592220  3.6186947190  5.6345137570
Li  12.8837547040  1.0321325670  5.6345137570
Mg  -14.5252619210  7.3766153380  0.0000000000
Mg  -3.8528568450  4.9062279110  0.0000000000
Mg  -9.1676541800  6.1364668610  5.6345137570
6
scale = 2.35000
Li  7.4288704545  2.3820673950  0.0000000000
Li  1.7466213790  3.6973619955  5.7570031865
Li  13.1638363280  1.0545702315  5.7570031865
Mg  -14.8410284845  7.5369765410  0.0000000000
Mg  -3.9366146025  5.0128850395  0.0000000000
Mg  -9.3669510100  6.2698683145  5.7570031865
6
scale = 2.40000
Li  7.5869315280  2.4327496800  0.0000000000
Li  1.7837835360  3.7760292720  5.8794926160
Li  13.4439179520  1.0770078960  5.8794926160
Mg  -15.1567950480  7.6973377440  0.0000000000
Mg  -4.0203723600  5.1195421680  0.0000000000
Mg  -9.5662478400  6.4032697680  5.8794926160
6
scale = 2.45000
Li  7.7449926015  2.4834319650  0.0000000000
Li  1.8209456930  3.8546965485  6.0019820455
Li  13.7239995760  1.0994455605  6.0019820455
Mg  -15.4725616115  7.8576989470  0.0000000000
Mg  -4.1041301175  5.2261992965  0.0000000000
Mg  -9.7655446700  6.5366712215  6.0019820455
