4
scale = 0.75000
Li  0.0000000000  0.0000000000  0.0000000000
Mg  1.1976888375  1.5027363150  -2.5357985400
Mg  0.2549496300  2.2541044725  -0.5397903675
Mg  2.1404280375  0.7513681575  -0.5397903675
4
scale = 0.80000
Li  0.0000000000  0.0000000000  0.0000000000
Mg  1.2775347600  1.6029187360  -2.7048517760
Mg  0.2719462720  2.4043781040  -0.5757763920
Mg  2.2831232400  0.8014593680  -0.5757763920
4
scale = 0.85000
Li  0.0000000000  0.0000000000  0.0000000000
Mg  1.3573806825  1.7031011570  -2.8739050120
Mg  0.2889429140  2.5546517355  -0.6117624165
Mg  2.4258184425  0.8515505785  -0.6117624165
4
scale = 0.90000
Li  0.0000000000  0.0000000000  0.0000000000
Mg  1.4372266050  1.8032835780  -3.0429582480
Mg  0.3059395560  2.7049253670  -0.6477484410
Mg  2.5685136450  0.9016417890  -0.6477484410
4
scale = 0.95000
Li  0.0000000000  0.0000000000  0.0000000000
Mg  1.5170725275  1.9034659990  -3.2120114840
Mg  0.3229361980  2.8551989985  -0.6837344655
Mg  2.7112088475  0.9517329995  -0.6837344655
4
scale = 1.00000
Li  0.0000000000  0.0000000000  0.0000000000
Mg  1.5969184500  2.0036484200  -3.3810647200
Mg  0.3399328400  3.0054726300  -0.7197204900
Mg  2.8539040500  1.0018242100  -0.7197204900
4
scale = 1.05000
Li  0.0000000000  0.0000000000  0.0000000000
Mg  1.6767643725  2.1038308410  -3.5501179560
Mg  0.3569294820  3.1557462615  -0.7557065145
Mg  2.9965992525  1.0519154205  -0.7557065145
4
scale = 1.10000
Li  0.0000000000  0.0000000000  0.0000000000
Mg  1.7566102950  2.2040132620  -3.7191711920
Mg  0.3739261240  3.3060198930  -0.7916925390
Mg  3.1392944550  1.1020066310  -0.7916925390
4
scale = 1.15000
Li  0.0000000000  0.0000000000  0.0000000000
Mg  1.8364562175  2.3041956830  -3.8882244280
Mg  0.3909227660  3.4562935245  -0.8276785635
Mg  3.2819896575  1.1520978415  -0.8276785635
4
scale = 1.20000
Li  0.0000000000  0.0000000000  0.0000000000
Mg  1.9163021400  2.4043781040  -4.0572776640
Mg  0.4079194080  3.6065671560  -0.8636645880
Mg  3.4246848600  1.2021890520  -0.8636645880
4
scale = 1.25000
Li  0.0000000000  0.0000000000  0.0000000000
Mg  1.9961480625  2.5045605250  -4.2263309000
Mg  0.4249160500  3.7568407875  -0.8996506125
Mg  3.5673800625  1.2522802625  -0.8996506125
4
scale = 1.30000
Li  0.0000000000  0.0000000000  0.0000000000
Mg  2.0759939850  2.6047429460  -4.3953841360
Mg  0.4419126920  3.9071144190  -0.9356366370
Mg  3.7100752650  1.3023714730  -0.9356366370
4
scale = 1.35000
Li  0.0000000000  0.0000000000  0.0000000000
Mg  2.1558399075  2.7049253670  -4.5644373720
Mg  0.4589093340  4.0573880505  -0.9716226615
Mg  3.8527704675  1.3524626835  -0.9716226615
4
scale = 1.40000
Li  0.0000000000  0.0000000000  0.0000000000
Mg  2.2356858300  2.8051077880  -4.7334906080
Mg  0.4759059760  4.2076616820  -1.0076086860
Mg  3.9954656700  1.4025538940  -1.0076086860
4
scale = 1.45000
Li  0.0000000000  0.0000000000  0.0000000000
Mg  2.3155317525  2.9052902090  -4.9025438440
Mg  0.4929026180  4.3579353135  -1.0435947105
Mg  4.1381608725  1.4526451045  -1.0435947105
4
scale = 1.50000
Li  0.0000000000  0.0000000000  0.0000000000
Mg  2.3953776750  3.0054726300  -5.0715970800
Mg  0.5098992600  4.5082089450  -1.0795807350
Mg  4.2808560750  1.5027363150  -1.0795807350
4
scale = 1.55000
Li  0.0000000000  0.0000000000  0.0000000000
Mg  2.4752235975  3.1056550510  -5.2406503160
Mg  0.5268959020  4.6584825765  -1.1155667595
Mg  4.4235512775  1.5528275255  -1.1155667595
4
scale = 1.60000
Li  0.0000000000  0.0000000000  0.0000000000
Mg  2.5550695200  3.2058374720  -5.4097035520
Mg  0.5438925440  4.8087562080  -1.1515527840
Mg  4.5662464800  1.6029187360  -1.1515527840
4
scale = 1.65000
Li  0.0000000000  0.0000000000  0.0000000000
Mg  2.6349154425  3.3060198930  -5.5787567880
Mg  0.5608891860  4.9590298395  -1.1875388085
Mg  4.7089416825  1.6530099465  -1.1875388085
4
scale = 1.70000
Li  0.0000000000  0.0000000000  0.0000000000
Mg  2.7147613650  3.4062023140  -5.7478100240
Mg  0.5778858280  5.1093034710  -1.2235248330
Mg  4.8516368850  1.7031011570  -1.2235248330
4
scale = 1.75000
Li  0.0000000000  0.0000000000  0.0000000000
Mg  2.7946072875  3.5063847350  -5.9168632600
Mg  0.5948824700  5.2595771025  -1.2595108575
Mg  4.9943320875  1.7531923675  -1.2595108575
4
scale = 1.80000
Li  0.0000000000  0.0000000000  0.0000000000
Mg  2.8744532100  3.6065671560  -6.0859164960
Mg  0.6118791120  5.4098507340  -1.2954968820
Mg  5.1370272900  1.8032835780  -1.2954968820
4
scale = 1.85000
Li  0.0000000000  0.0000000000  0.0000000000
Mg  2.9542991325  3.7067495770  -6.2549697320
Mg  0.6288757540  5.5601243655  -1.3314829065
Mg  5.2797224925  1.8533747885  -1.3314829065
4
scale = 1.90000
Li  0.0000000000  0.0000000000  0.0000000000
Mg  3.0341450550  3.8069319980  -6.4240229680
Mg  0.6458723960  5.7103979970  -1.3674689310
Mg  5.4224176950  1.9034659990  -1.3674689310
4
scale = 1.95000
Li  0.0000000000  0.0000000000  0.0000000000
Mg  3.1139909775  3.9071144190  -6.5930762040
Mg  0.6628690380  5.8606716285  -1.4034549555
Mg  5.5651128975  1.9535572095  -1.4034549555
4
scale = 2.00000
Li  0.0000000000  0.0000000000  0.0000000000
Mg  3.1938369000  4.0072968400  -6.7621294400
Mg  0.6798656800  6.0109452600  -1.4394409800
Mg  5.7078081000  2.0036484200  -1.4394409800
4
scale = 2.05000
Li  0.0000000000  0.0000000000  0.0000000000
Mg  3.2736828225  4.1074792610  -6.9311826760
Mg  0.6968623220  6.1612188915  -1.4754270045
Mg  5.8505033025  2.0537396305  -1.4754270045
4
scale = 2.10000
Li  0.0000000000  0.0000000000  0.0000000000
Mg  3.3535287450  4.2076616820  -7.1002359120
Mg  0.7138589640  6.3114925230  -1.5114130290
Mg  5.9931985050  2.1038308410  -1.5114130290
4
scale = 2.15000
Li  0.0000000000  0.0000000000  0.0000000000
Mg  3.4333746675  4.3078441030  -7.2692891480
Mg  0.7308556060  6.4617661545  -1.5473990535
Mg  6.1358937075  2.1539220515  -1.5473990535
4
scale = 2.20000
Li  0.0000000000  0.0000000000  0.0000000000
Mg  3.5132205900  4.4080265240  -7.4383423840
Mg  0.7478522480  6.6120397860  -1.5833850780
Mg  6.2785889100  2.2040132620  -1.5833850780
4
scale = 2.25000
Li  0.0000000000  0.0000000000  0.0000000000
Mg  3.5930665125  4.5082089450  -7.6073956200
Mg  0.7648488900  6.7623134175  -1.6193711025
Mg  6.4212841125  2.2541044725  -1.6193711025
4
scale = 2.30000
Li  0.0000000000  0.0000000000  0.0000000000
Mg  3.6729124350  4.6083913660  -7.7764488560
Mg  0.7818455320  6.9125870490  -1.6553571270
Mg  6.5639793150  2.3041956830  -1.6553571270
4
scale = 2.35000
Li  0.0000000000  0.0000000000  0.0000000000
Mg  3.7527583575  4.7085737870  -7.9455020920
Mg  0.7988421740  7.0628606805  -1.6913431515
Mg  6.7066745175  2.3542868935  -1.6913431515
4
scale = 2.40000
Li  0.0000000000  0.0000000000  0.0000000000
Mg  3.8326042800  4.8087562080  -8.1145553280
Mg  0.8158388160  7.2131343120  -1.7273291760
Mg  6.8493697200  2.4043781040  -1.7273291760
4
scale = 2.45000
Li  0.0000000000  0.0000000000  0.0000000000
Mg  3.9124502025  4.9089386290  -8.2836085640
Mg  0.8328354580  7.3634079435  -1.7633152005
Mg  6.9920649225  2.4544693145  -1.7633152005
