6
scale = 0.75000
Li  -4.4616794550  2.0619874050  1.8782545500
Li  3.5650559400  0.5158194375  1.8782545500
Mg  -5.7726519450  2.3145164325  0.0000000000
Mg  -1.8059126475  1.5504143475  0.0000000000
Mg  2.2369400025  0.7716507600  0.0000000000
Mg  -0.4476383550  1.2887737050  1.8782545500
6
scale = 0.80000
Li  -4.7591247520  2.1994532320  2.0034715200
Li  3.8027263360  0.5502074000  2.0034715200
Mg  -6.1574954080  2.4688175280  0.0000000000
Mg  -1.9263068240  1.6537753040  0.0000000000
Mg  2.3860693360  0.8230941440  0.0000000000
Mg  -0.4774809120  1.3746919520  2.0034715200
6
scale = 0.85000
Li  -5.0565700490  2.3369190590  2.1286884900
Li  4.0403967320  0.5845953625  2.1286884900
Mg  -6.5423388710  2.6231186235  0.0000000000
Mg  -2.0467010005  1.7571362605  0.0000000000
Mg  2.5351986695  0.8745375280  0.0000000000
Mg  -0.5073234690  1.4606101990  2.1286884900
6
scale = 0.90000
Li  -5.3540153460  2.4743848860  2.2539054600
Li  4.2780671280  0.6189833250  2.2539054600
Mg  -6.9271823340  2.7774197190  0.0000000000
Mg  -2.1670951770  1.8604972170  0.0000000000
Mg  2.6843280030  0.9259809120  0.0000000000
Mg  -0.5371660260  1.5465284460  2.2539054600
6
scale = 0.95000
Li  -5.6514606430  2.6118507130  2.3791224300
Li  4.5157375240  0.6533712875  2.3791224300
Mg  -7.3120257970  2.9317208145  0.0000000000
Mg  -2.2874893535  1.9638581735  0.0000000000
Mg  2.8334573365  0.9774242960  0.0000000000
Mg  -0.5670085830  1.6324466930  2.3791224300
6
scale = 1.00000
Li  -5.9489059400  2.7493165400  2.5043394000
Li  4.7534079200  0.6877592500  2.5043394000
Mg  -7.6968692600  3.0860219100  0.0000000000
Mg  -2.4078835300  2.0672191300  0.0000000000
Mg  2.9825866700  1.0288676800  0.0000000000
Mg  -0.5968511400  1.7183649400  2.5043394000
6
scale = 1.05000
Li  -6.2463512370  2.8867823670  2.6295563700
Li  4.9910783160  0.7221472125  2.6295563700
Mg  -8.0817127230  3.2403230055  0.0000000000
Mg  -2.5282777065  2.1705800865  0.0000000000
Mg  3.1317160035  1.0803110640  0.0000000000
Mg  -0.6266936970  1.8042831870  2.6295563700
6
scale = 1.10000
Li  -6.5437965340  3.0242481940  2.7547733400
Li  5.2287487120  0.7565351750  2.7547733400
Mg  -8.4665561860  3.3946241010  0.0000000000
Mg  -2.6486718830  2.2739410430  0.0000000000
Mg  3.2808453370  1.1317544480  0.0000000000
Mg  -0.6565362540  1.8902014340  2.7547733400
6
scale = 1.15000
Li  -6.8412418310  3.1617140210  2.8799903100
Li  5.4664191080  0.7909231375  2.8799903100
Mg  -8.8513996490  3.5489251965  0.0000000000
Mg  -2.7690660595  2.3773019995  0.0000000000
Mg  3.4299746705  1.1831978320  0.0000000000
Mg  -0.6863788110  1.9761196810  2.8799903100
6
scale = 1.20000
Li  -7.1386871280  3.2991798480  3.0052072800
Li  5.7040895040  0.8253111000  3.0052072800
Mg  -9.2362431120  3.7032262920  0.0000000000
Mg  -2.8894602360  2.4806629560  0.0000000000
Mg  3.5791040040  1.2346412160  0.0000000000
Mg  -0.7162213680  2.0620379280  3.0052072800
6
scale = 1.25000
Li  -7.4361324250  3.4366456750  3.1304242500
Li  5.9417599000  0.8596990625  3.1304242500
Mg  -9.6210865750  3.8575273875  0.0000000000
Mg  -3.0098544125  2.5840239125  0.0000000000
Mg  3.7282333375  1.2860846000  0.0000000000
Mg  -0.7460639250  2.1479561750  3.1304242500
6
scale = 1.30000
Li  -7.7335777220  3.5741115020  3.2556412200
Li  6.1794302960  0.8940870250  3.2556412200
Mg  -10.0059300380  4.0118284830  0.0000000000
Mg  -3.1302485890  2.6873848690  0.0000000000
Mg  3.8773626710  1.3375279840  0.0000000000
Mg  -0.7759064820  2.2338744220  3.2556412200
6
scale = 1.35000
Li  -8.0310230190  3.7115773290  3.3808581900
Li  6.4171006920  0.9284749875  3.3808581900
Mg  -10.3907735010  4.1661295785  0.0000000000
Mg  -3.2506427655  2.7907458255  0.0000000000
Mg  4.0264920045  1.3889713680  0.0000000000
Mg  -0.8057490390  2.3197926690  3.3808581900
6
scale = 1.40000
Li  -8.3284683160  3.8490431560  3.5060751600
Li  6.6547710880  0.9628629500  3.5060751600
Mg  -10.7756169640  4.3204306740  0.0000000000
Mg  -3.3710369420  2.8941067820  0.0000000000
Mg  4.1756213380  1.4404147520  0.0000000000
Mg  -0.8355915960  2.4057109160  3.5060751600
6
scale = 1.45000
Li  -8.6259136130  3.9865089830  3.6312921300
Li  6.8924414840  0.9972509125  3.6312921300
Mg  -11.1604604270  4.4747317695  0.0000000000
Mg  -3.4914311185  2.9974677385  0.0000000000
Mg  4.3247506715  1.4918581360  0.0000000000
Mg  -0.8654341530  2.4916291630  3.6312921300
6
scale = 1.50000
Li  -8.9233589100  4.1239748100  3.7565091000
Li  7.1301118800  1.0316388750  3.7565091000
Mg  -11.5453038900  4.6290328650  0.0000000000
Mg  -3.6118252950  3.1008286950  0.0000000000
Mg  4.4738800050  1.5433015200  0.0000000000
Mg  -0.8952767100  2.5775474100  3.7565091000
6
scale = 1.55000
Li  -9.2208042070  4.2614406370  3.8817260700
Li  7.3677822760  1.0660268375  3.8817260700
Mg  -11.9301473530  4.7833339605  0.0000000000
Mg  -3.7322194715  3.2041896515  0.0000000000
Mg  4.6230093385  1.5947449040  0.0000000000
Mg  -0.9251192670  2.6634656570  3.8817260700
6
scale = 1.60000
Li  -9.5182495040  4.3989064640  4.0069430400
Li  7.6054526720  1.1004148000  4.0069430400
Mg  -12.3149908160  4.9376350560  0.0000000000
Mg  -3.8526136480  3.3075506080  0.0000000000
Mg  4.7721386720  1.6461882880  0.0000000000
Mg  -0.9549618240  2.7493839040  4.0069430400
6
scale = 1.65000
Li  -9.8156948010  4.5363722910  4.1321600100
Li  7.8431230680  1.1348027625  4.1321600100
Mg  -12.6998342790  5.0919361515  0.0000000000
Mg  -3.9730078245  3.4109115645  0.0000000000
Mg  4.9212680055  1.6976316720  0.0000000000
Mg  -0.9848043810  2.8353021510  4.1321600100
6
scale = 1.70000
Li  -10.1131400980  4.6738381180  4.2573769800
Li  8.0807934640  1.1691907250  4.2573769800
Mg  -13.0846777420  5.2462372470  0.0000000000
Mg  -4.0934020010  3.5142725210  0.0000000000
Mg  5.0703973390  1.7490750560  0.0000000000
Mg  -1.0146469380  2.9212203980  4.2573769800
6
scale = 1.75000
Li  -10.4105853950  4.8113039450  4.3825939500
Li  8.3184638600  1.2035786875  4.3825939500
Mg  -13.4695212050  5.4005383425  0.0000000000
Mg  -4.2137961775  3.6176334775  0.0000000000
Mg  5.2195266725  1.8005184400  0.0000000000
Mg  -1.0444894950  3.0071386450  4.3825939500
6
scale = 1.80000
Li  -10.7080306920  4.9487697720  4.5078109200
Li  8.5561342560  1.2379666500  4.5078109200
Mg  -13.8543646680  5.5548394380  0.0000000000
Mg  -4.3341903540  3.7209944340  0.0000000000
Mg  5.3686560060  1.8519618240  0.0000000000
Mg  -1.0743320520  3.0930568920  4.5078109200
6
scale = 1.85000
Li  -11.0054759890  5.0862355990  4.6330278900
Li  8.7938046520  1.2723546125  4.6330278900
Mg  -14.2392081310  5.7091405335  0.0000000000
Mg  -4.4545845305  3.8243553905  0.0000000000
Mg  5.5177853395  1.9034052080  0.0000000000
Mg  -1.1041746090  3.1789751390  4.6330278900
6
scale = 1.90000
Li  -11.3029212860  5.2237014260  4.7582448600
Li  9.0314750480  1.3067425750  4.7582448600
Mg  -14.6240515940  5.8634416290  0.0000000000
Mg  -4.5749787070  3.9277163470  0.0000000000
Mg  5.6669146730  1.9548485920  0.0000000000
Mg  -1.1340171660  3.2648933860  4.7582448600
6
scale = 1.95000
Li  -11.6003665830  5.3611672530  4.8834618300
Li  9.2691454440  1.3411305375  4.8834618300
Mg  -15.0088950570  6.0177427245  0.0000000000
Mg  -4.6953728835  4.0310773035  0.0000000000
Mg  5.8160440065  2.0062919760  0.0000000000
Mg  -1.1638597230  3.3508116330  4.8834618300
6
scale = 2.00000
Li  -11.8978118800  5.4986330800  5.0086788000
Li  9.5068158400  1.3755185000  5.0086788000
Mg  -15.3937385200  6.1720438200  0.0000000000
Mg  -4.8157670600  4.1344382600  0.0000000000
Mg  5.9651733400  2.0577353600  0.0000000000
Mg  -1.1937022800  3.4367298800  5.0086788000
6
scale = 2.05000
Li  -12.1952571770  5.6360989070  5.1338957700
Li  9.7444862360  1.4099064625  5.1338957700
Mg  -15.7785819830  6.3263449155  0.0000000000
Mg  -4.9361612365  4.2377992165  0.0000000000
Mg  6.1143026735  2.1091787440  0.0000000000
Mg  -1.2235448370  3.5226481270  5.1338957700
6
scale = 2.10000
Li  -12.4927024740  5.7735647340  5.2591127400
Li  9.9821566320  1.4442944250  5.2591127400
Mg  -16.1634254460  6.4806460110  0.0000000000
Mg  -5.0565554130  4.3411601730  0.0000000000
Mg  6.2634320070  2.1606221280  0.0000000000
Mg  -1.2533873940  3.6085663740  5.2591127400
6
scale = 2.15000
Li  -12.7901477710  5.9110305610  5.3843297100
Li  10.2198270280  1.4786823875  5.3843297100
Mg  -16.5482689090  6.6349471065  0.0000000000
Mg  -5.1769495895  4.4445211295  0.0000000000
Mg  6.4125613405  2.2120655120  0.0000000000
Mg  -1.2832299510  3.6944846210  5.3843297100
6
scale = 2.20000
Li  -13.0875930680  6.0484963880  5.5095466800
Li  10.4574974240  1.5130703500  5.5095466800
Mg  -16.9331123720  6.7892482020  0.0000000000
Mg  -5.2973437660  4.5478820860  0.0000000000
Mg  6.5616906740  2.2635088960  0.0000000000
Mg  -1.3130725080  3.7804028680  5.5095466800
6
scale = 2.25000
Li  -13.3850383650  6.1859622150  5.6347636500
Li  10.6951678200  1.5474583125  5.6347636500
Mg  -17.3179558350  6.9435492975  0.0000000000
Mg  -5.4177379425  4.6512430425  0.0000000000
Mg  6.7108200075  2.3149522800  0.0000000000
Mg  -1.3429150650  3.8663211150  5.6347636500
6
scale = 2.30000
Li  -13.6824836620  6.3234280420  5.7599806200
Li  10.9328382160  1.5818462750  5.7599806200
Mg  -17.7027992980  7.0978503930  0.0000000000
Mg  -5.5381321190  4.7546039990  0.0000000000
Mg  6.8599493410  2.3663956640  0.0000000000
Mg  -1.3727576220  3.9522393620  5.7599806200
6
scale = 2.35000
Li  -13.9799289590  6.4608938690  5.8851975900
Li  11.1705086120  1.6162342375  5.8851975900
Mg  -18.0876427610  7.2521514885  0.0000000000
Mg  -5.6585262955  4.8579649555  0.0000000000
Mg  7.0090786745  2.4178390480  0.0000000000
Mg  -1.4026001790  4.0381576090  5.8851975900
6
scale = 2.40000
Li  -14.2773742560  6.5983596960  6.0104145600
Li  11.4081790080  1.6506222000  6.0104145600
Mg  -18.4724862240  7.4064525840  0.0000000000
Mg  -5.7789204720  4.9613259120  0.0000000000
Mg  7.1582080080  2.4692824320  0.0000000000
Mg  -1.4324427360  4.1240758560  6.0104145600
6
scale = 2.45000
Li  -14.5748195530  6.7358255230  6.1356315300
Li  11.6458494040  1.6850101625  6.1356315300
Mg  -18.8573296870  7.5607536795  0.0000000000
Mg  -5.8993146485  5.0646868685  0.0000000000
Mg  7.3073373415  2.5207258160  0.0000000000
Mg  -1.4622852930  4.2099941030  6.1356315300
