6
scale = 0.75000
Li  1.5473381925  0.8986056150  0.9426791175
Li  -1.1010687450  1.4104591950  2.8280373600
Mg  -2.4311470125  1.6675214025  0.9426791175
Mg  5.5361627175  0.1276915650  0.9426791175
Mg  2.8774164600  0.6415434075  2.8280373600
Mg  -5.0898932700  2.1813732525  2.8280373600
6
scale = 0.80000
Li  1.6504940720  0.9585126560  1.0055243920
Li  -1.1744733280  1.5044898080  3.0165731840
Mg  -2.5932234800  1.7786894960  1.0055243920
Mg  5.9052402320  0.1362043360  1.0055243920
Mg  3.0692442240  0.6843129680  3.0165731840
Mg  -5.4292194880  2.3267981360  3.0165731840
6
scale = 0.85000
Li  1.7536499515  1.0184196970  1.0683696665
Li  -1.2478779110  1.5985204210  3.2051090080
Mg  -2.7552999475  1.8898575895  1.0683696665
Mg  6.2743177465  0.1447171070  1.0683696665
Mg  3.2610719880  0.7270825285  3.2051090080
Mg  -5.7685457060  2.4722230195  3.2051090080
6
scale = 0.90000
Li  1.8568058310  1.0783267380  1.1312149410
Li  -1.3212824940  1.6925510340  3.3936448320
Mg  -2.9173764150  2.0010256830  1.1312149410
Mg  6.6433952610  0.1532298780  1.1312149410
Mg  3.4528997520  0.7698520890  3.3936448320
Mg  -6.1078719240  2.6176479030  3.3936448320
6
scale = 0.95000
Li  1.9599617105  1.1382337790  1.1940602155
Li  -1.3946870770  1.7865816470  3.5821806560
Mg  -3.0794528825  2.1121937765  1.1940602155
Mg  7.0124727755  0.1617426490  1.1940602155
Mg  3.6447275160  0.8126216495  3.5821806560
Mg  -6.4471981420  2.7630727865  3.5821806560
6
scale = 1.00000
Li  2.0631175900  1.1981408200  1.2569054900
Li  -1.4680916600  1.8806122600  3.7707164800
Mg  -3.2415293500  2.2233618700  1.2569054900
Mg  7.3815502900  0.1702554200  1.2569054900
Mg  3.8365552800  0.8553912100  3.7707164800
Mg  -6.7865243600  2.9084976700  3.7707164800
6
scale = 1.05000
Li  2.1662734695  1.2580478610  1.3197507645
Li  -1.5414962430  1.9746428730  3.9592523040
Mg  -3.4036058175  2.3345299635  1.3197507645
Mg  7.7506278045  0.1787681910  1.3197507645
Mg  4.0283830440  0.8981607705  3.9592523040
Mg  -7.1258505780  3.0539225535  3.9592523040
6
scale = 1.10000
Li  2.2694293490  1.3179549020  1.3825960390
Li  -1.6149008260  2.0686734860  4.1477881280
Mg  -3.5656822850  2.4456980570  1.3825960390
Mg  8.1197053190  0.1872809620  1.3825960390
Mg  4.2202108080  0.9409303310  4.1477881280
Mg  -7.4651767960  3.1993474370  4.1477881280
6
scale = 1.15000
Li  2.3725852285  1.3778619430  1.4454413135
Li  -1.6883054090  2.1627040990  4.3363239520
Mg  -3.7277587525  2.5568661505  1.4454413135
Mg  8.4887828335  0.1957937330  1.4454413135
Mg  4.4120385720  0.9836998915  4.3363239520
Mg  -7.8045030140  3.3447723205  4.3363239520
6
scale = 1.20000
Li  2.4757411080  1.4377689840  1.5082865880
Li  -1.7617099920  2.2567347120  4.5248597760
Mg  -3.8898352200  2.6680342440  1.5082865880
Mg  8.8578603480  0.2043065040  1.5082865880
Mg  4.6038663360  1.0264694520  4.5248597760
Mg  -8.1438292320  3.4901972040  4.5248597760
6
scale = 1.25000
Li  2.5788969875  1.4976760250  1.5711318625
Li  -1.8351145750  2.3507653250  4.7133956000
Mg  -4.0519116875  2.7792023375  1.5711318625
Mg  9.2269378625  0.2128192750  1.5711318625
Mg  4.7956941000  1.0692390125  4.7133956000
Mg  -8.4831554500  3.6356220875  4.7133956000
6
scale = 1.30000
Li  2.6820528670  1.5575830660  1.6339771370
Li  -1.9085191580  2.4447959380  4.9019314240
Mg  -4.2139881550  2.8903704310  1.6339771370
Mg  9.5960153770  0.2213320460  1.6339771370
Mg  4.9875218640  1.1120085730  4.9019314240
Mg  -8.8224816680  3.7810469710  4.9019314240
6
scale = 1.35000
Li  2.7852087465  1.6174901070  1.6968224115
Li  -1.9819237410  2.5388265510  5.0904672480
Mg  -4.3760646225  3.0015385245  1.6968224115
Mg  9.9650928915  0.2298448170  1.6968224115
Mg  5.1793496280  1.1547781335  5.0904672480
Mg  -9.1618078860  3.9264718545  5.0904672480
6
scale = 1.40000
Li  2.8883646260  1.6773971480  1.7596676860
Li  -2.0553283240  2.6328571640  5.2790030720
Mg  -4.5381410900  3.1127066180  1.7596676860
Mg  10.3341704060  0.2383575880  1.7596676860
Mg  5.3711773920  1.1975476940  5.2790030720
Mg  -9.5011341040  4.0718967380  5.2790030720
6
scale = 1.45000
Li  2.9915205055  1.7373041890  1.8225129605
Li  -2.1287329070  2.7268877770  5.4675388960
Mg  -4.7002175575  3.2238747115  1.8225129605
Mg  10.7032479205  0.2468703590  1.8225129605
Mg  5.5630051560  1.2403172545  5.4675388960
Mg  -9.8404603220  4.2173216215  5.4675388960
6
scale = 1.50000
Li  3.0946763850  1.7972112300  1.8853582350
Li  -2.2021374900  2.8209183900  5.6560747200
Mg  -4.8622940250  3.3350428050  1.8853582350
Mg  11.0723254350  0.2553831300  1.8853582350
Mg  5.7548329200  1.2830868150  5.6560747200
Mg  -10.1797865400  4.3627465050  5.6560747200
6
scale = 1.55000
Li  3.1978322645  1.8571182710  1.9482035095
Li  -2.2755420730  2.9149490030  5.8446105440
Mg  -5.0243704925  3.4462108985  1.9482035095
Mg  11.4414029495  0.2638959010  1.9482035095
Mg  5.9466606840  1.3258563755  5.8446105440
Mg  -10.5191127580  4.5081713885  5.8446105440
6
scale = 1.60000
Li  3.3009881440  1.9170253120  2.0110487840
Li  -2.3489466560  3.0089796160  6.0331463680
Mg  -5.1864469600  3.5573789920  2.0110487840
Mg  11.8104804640  0.2724086720  2.0110487840
Mg  6.1384884480  1.3686259360  6.0331463680
Mg  -10.8584389760  4.6535962720  6.0331463680
6
scale = 1.65000
Li  3.4041440235  1.9769323530  2.0738940585
Li  -2.4223512390  3.1030102290  6.2216821920
Mg  -5.3485234275  3.6685470855  2.0738940585
Mg  12.1795579785  0.2809214430  2.0738940585
Mg  6.3303162120  1.4113954965  6.2216821920
Mg  -11.1977651940  4.7990211555  6.2216821920
6
scale = 1.70000
Li  3.5072999030  2.0368393940  2.1367393330
Li  -2.4957558220  3.1970408420  6.4102180160
Mg  -5.5105998950  3.7797151790  2.1367393330
Mg  12.5486354930  0.2894342140  2.1367393330
Mg  6.5221439760  1.4541650570  6.4102180160
Mg  -11.5370914120  4.9444460390  6.4102180160
6
scale = 1.75000
Li  3.6104557825  2.0967464350  2.1995846075
Li  -2.5691604050  3.2910714550  6.5987538400
Mg  -5.6726763625  3.8908832725  2.1995846075
Mg  12.9177130075  0.2979469850  2.1995846075
Mg  6.7139717400  1.4969346175  6.5987538400
Mg  -11.8764176300  5.0898709225  6.5987538400
6
scale = 1.80000
Li  3.7136116620  2.1566534760  2.2624298820
Li  -2.6425649880  3.3851020680  6.7872896640
Mg  -5.8347528300  4.0020513660  2.2624298820
Mg  13.2867905220  0.3064597560  2.2624298820
Mg  6.9057995040  1.5397041780  6.7872896640
Mg  -12.2157438480  5.2352958060  6.7872896640
6
scale = 1.85000
Li  3.8167675415  2.2165605170  2.3252751565
Li  -2.7159695710  3.4791326810  6.9758254880
Mg  -5.9968292975  4.1132194595  2.3252751565
Mg  13.6558680365  0.3149725270  2.3252751565
Mg  7.0976272680  1.5824737385  6.9758254880
Mg  -12.5550700660  5.3807206895  6.9758254880
6
scale = 1.90000
Li  3.9199234210  2.2764675580  2.3881204310
Li  -2.7893741540  3.5731632940  7.1643613120
Mg  -6.1589057650  4.2243875530  2.3881204310
Mg  14.0249455510  0.3234852980  2.3881204310
Mg  7.2894550320  1.6252432990  7.1643613120
Mg  -12.8943962840  5.5261455730  7.1643613120
6
scale = 1.95000
Li  4.0230793005  2.3363745990  2.4509657055
Li  -2.8627787370  3.6671939070  7.3528971360
Mg  -6.3209822325  4.3355556465  2.4509657055
Mg  14.3940230655  0.3319980690  2.4509657055
Mg  7.4812827960  1.6680128595  7.3528971360
Mg  -13.2337225020  5.6715704565  7.3528971360
6
scale = 2.00000
Li  4.1262351800  2.3962816400  2.5138109800
Li  -2.9361833200  3.7612245200  7.5414329600
Mg  -6.4830587000  4.4467237400  2.5138109800
Mg  14.7631005800  0.3405108400  2.5138109800
Mg  7.6731105600  1.7107824200  7.5414329600
Mg  -13.5730487200  5.8169953400  7.5414329600
6
scale = 2.05000
Li  4.2293910595  2.4561886810  2.5766562545
Li  -3.0095879030  3.8552551330  7.7299687840
Mg  -6.6451351675  4.5578918335  2.5766562545
Mg  15.1321780945  0.3490236110  2.5766562545
Mg  7.8649383240  1.7535519805  7.7299687840
Mg  -13.9123749380  5.9624202235  7.7299687840
6
scale = 2.10000
Li  4.3325469390  2.5160957220  2.6395015290
Li  -3.0829924860  3.9492857460  7.9185046080
Mg  -6.8072116350  4.6690599270  2.6395015290
Mg  15.5012556090  0.3575363820  2.6395015290
Mg  8.0567660880  1.7963215410  7.9185046080
Mg  -14.2517011560  6.1078451070  7.9185046080
6
scale = 2.15000
Li  4.4357028185  2.5760027630  2.7023468035
Li  -3.1563970690  4.0433163590  8.1070404320
Mg  -6.9692881025  4.7802280205  2.7023468035
Mg  15.8703331235  0.3660491530  2.7023468035
Mg  8.2485938520  1.8390911015  8.1070404320
Mg  -14.5910273740  6.2532699905  8.1070404320
6
scale = 2.20000
Li  4.5388586980  2.6359098040  2.7651920780
Li  -3.2298016520  4.1373469720  8.2955762560
Mg  -7.1313645700  4.8913961140  2.7651920780
Mg  16.2394106380  0.3745619240  2.7651920780
Mg  8.4404216160  1.8818606620  8.2955762560
Mg  -14.9303535920  6.3986948740  8.2955762560
6
scale = 2.25000
Li  4.6420145775  2.6958168450  2.8280373525
Li  -3.3032062350  4.2313775850  8.4841120800
Mg  -7.2934410375  5.0025642075  2.8280373525
Mg  16.6084881525  0.3830746950  2.8280373525
Mg  8.6322493800  1.9246302225  8.4841120800
Mg  -15.2696798100  6.5441197575  8.4841120800
6
scale = 2.30000
Li  4.7451704570  2.7557238860  2.8908826270
Li  -3.3766108180  4.3254081980  8.6726479040
Mg  -7.4555175050  5.1137323010  2.8908826270
Mg  16.9775656670  0.3915874660  2.8908826270
Mg  8.8240771440  1.9673997830  8.6726479040
Mg  -15.6090060280  6.6895446410  8.6726479040
6
scale = 2.35000
Li  4.8483263365  2.8156309270  2.9537279015
Li  -3.4500154010  4.4194388110  8.8611837280
Mg  -7.6175939725  5.2249003945  2.9537279015
Mg  17.3466431815  0.4001002370  2.9537279015
Mg  9.0159049080  2.0101693435  8.8611837280
Mg  -15.9483322460  6.8349695245  8.8611837280
6
scale = 2.40000
Li  4.9514822160  2.8755379680  3.0165731760
Li  -3.5234199840  4.5134694240  9.0497195520
Mg  -7.7796704400  5.3360684880  3.0165731760
Mg  17.7157206960  0.4086130080  3.0165731760
Mg  9.2077326720  2.0529389040  9.0497195520
Mg  -16.2876584640  6.9803944080  9.0497195520
6
scale = 2.45000
Li  5.0546380955  2.9354450090  3.0794184505
Li  -3.5968245670  4.6075000370  9.2382553760
Mg  -7.9417469075  5.4472365815  3.0794184505
Mg  18.0847982105  0.4171257790  3.0794184505
Mg  9.3995604360  2.0957084645  9.2382553760
Mg  -16.6269846820  7.1258192915  9.2382553760
