4
scale = 0.75000
Li  1.1798110350  0.6811642200  3.7956001650
Mg  1.1798110350  0.6811642200  0.0000000000
Mg  0.0000000000  0.0000000000  5.6369604300
Mg  0.0000000000  0.0000000000  1.9542398925
4
scale = 0.80000
Li  1.2584651040  0.7265751680  4.0486401760
Mg  1.2584651040  0.7265751680  0.0000000000
Mg  0.0000000000  0.0000000000  6.0127577920
Mg  0.0000000000  0.0000000000  2.0845225520
4
scale = 0.85000
Li  1.3371191730  0.7719861160  4.3016801870
Mg  1.3371191730  0.7719861160  0.0000000000
Mg  0.0000000000  0.0000000000  6.3885551540
Mg  0.0000000000  0.0000000000  2.2148052115
4
scale = 0.90000
Li  1.4157732420  0.8173970640  4.5547201980
Mg  1.4157732420  0.8173970640  0.0000000000
Mg  0.0000000000  0.0000000000  6.7643525160
Mg  0.0000000000  0.0000000000  2.3450878710
4
scale = 0.95000
Li  1.4944273110  0.8628080120  4.8077602090
Mg  1.4944273110  0.8628080120  0.0000000000
Mg  0.0000000000  0.0000000000  7.1401498780
Mg  0.0000000000  0.0000000000  2.4753705305
4
scale = 1.00000
Li  1.5730813800  0.9082189600  5.0608002200
Mg  1.5730813800  0.9082189600  0.0000000000
Mg  0.0000000000  0.0000000000  7.5159472400
Mg  0.0000000000  0.0000000000  2.6056531900
4
scale = 1.05000
Li  1.6517354490  0.9536299080  5.3138402310
Mg  1.6517354490  0.9536299080  0.0000000000
Mg  0.0000000000  0.0000000000  7.8917446020
Mg  0.0000000000  0.0000000000  2.7359358495
4
scale = 1.10000
Li  1.7303895180  0.9990408560  5.5668802420
Mg  1.7303895180  0.9990408560  0.0000000000
Mg  0.0000000000  0.0000000000  8.2675419640
Mg  0.0000000000  0.0000000000  2.8662185090
4
scale = 1.15000
Li  1.8090435870  1.0444518040  5.8199202530
Mg  1.8090435870  1.0444518040  0.0000000000
Mg  0.0000000000  0.0000000000  8.6433393260
Mg  0.0000000000  0.0000000000  2.9965011685
4
scale = 1.20000
Li  1.8876976560  1.0898627520  6.0729602640
Mg  1.8876976560  1.0898627520  0.0000000000
Mg  0.0000000000  0.0000000000  9.0191366880
Mg  0.0000000000  0.0000000000  3.1267838280
4
scale = 1.25000
Li  1.9663517250  1.1352737000  6.3260002750
Mg  1.9663517250  1.1352737000  0.0000000000
Mg  0.0000000000  0.0000000000  9.3949340500
Mg  0.0000000000  0.0000000000  3.2570664875
4
scale = 1.30000
Li  2.0450057940  1.1806846480  6.5790402860
Mg  2.0450057940  1.1806846480  0.0000000000
Mg  0.0000000000  0.0000000000  9.7707314120
Mg  0.0000000000  0.0000000000  3.3873491470
4
scale = 1.35000
Li  2.1236598630  1.2260955960  6.8320802970
Mg  2.1236598630  1.2260955960  0.0000000000
Mg  0.0000000000  0.0000000000  10.1465287740
Mg  0.0000000000  0.0000000000  3.5176318065
4
scale = 1.40000
Li  2.2023139320  1.2715065440  7.0851203080
Mg  2.2023139320  1.2715065440  0.0000000000
Mg  0.0000000000  0.0000000000  10.5223261360
Mg  0.0000000000  0.0000000000  3.6479144660
4
scale = 1.45000
Li  2.2809680010  1.3169174920  7.3381603190
Mg  2.2809680010  1.3169174920  0.0000000000
Mg  0.0000000000  0.0000000000  10.8981234980
Mg  0.0000000000  0.0000000000  3.7781971255
4
scale = 1.50000
Li  2.3596220700  1.3623284400  7.5912003300
Mg  2.3596220700  1.3623284400  0.0000000000
Mg  0.0000000000  0.0000000000  11.2739208600
Mg  0.0000000000  0.0000000000  3.9084797850
4
scale = 1.55000
Li  2.4382761390  1.4077393880  7.8442403410
Mg  2.4382761390  1.4077393880  0.0000000000
Mg  0.0000000000  0.0000000000  11.6497182220
Mg  0.0000000000  0.0000000000  4.0387624445
4
scale = 1.60000
Li  2.5169302080  1.4531503360  8.0972803520
Mg  2.5169302080  1.4531503360  0.0000000000
Mg  0.0000000000  0.0000000000  12.0255155840
Mg  0.0000000000  0.0000000000  4.1690451040
4
scale = 1.65000
Li  2.5955842770  1.4985612840  8.3503203630
Mg  2.5955842770  1.4985612840  0.0000000000
Mg  0.0000000000  0.0000000000  12.4013129460
Mg  0.0000000000  0.0000000000  4.2993277635
4
scale = 1.70000
Li  2.6742383460  1.5439722320  8.6033603740
Mg  2.6742383460  1.5439722320  0.0000000000
Mg  0.0000000000  0.0000000000  12.7771103080
Mg  0.0000000000  0.0000000000  4.4296104230
4
scale = 1.75000
Li  2.7528924150  1.5893831800  8.8564003850
Mg  2.7528924150  1.5893831800  0.0000000000
Mg  0.0000000000  0.0000000000  13.1529076700
Mg  0.0000000000  0.0000000000  4.5598930825
4
scale = 1.80000
Li  2.8315464840  1.6347941280  9.1094403960
Mg  2.8315464840  1.6347941280  0.0000000000
Mg  0.0000000000  0.0000000000  13.5287050320
Mg  0.0000000000  0.0000000000  4.6901757420
4
scale = 1.85000
Li  2.9102005530  1.6802050760  9.3624804070
Mg  2.9102005530  1.6802050760  0.0000000000
Mg  0.0000000000  0.0000000000  13.9045023940
Mg  0.0000000000  0.0000000000  4.8204584015
4
scale = 1.90000
Li  2.9888546220  1.7256160240  9.6155204180
Mg  2.9888546220  1.7256160240  0.0000000000
Mg  0.0000000000  0.0000000000  14.2802997560
Mg  0.0000000000  0.0000000000  4.9507410610
4
scale = 1.95000
Li  3.0675086910  1.7710269720  9.8685604290
Mg  3.0675086910  1.7710269720  0.0000000000
Mg  0.0000000000  0.0000000000  14.6560971180
Mg  0.0000000000  0.0000000000  5.0810237205
4
scale = 2.00000
Li  3.1461627600  1.8164379200  10.1216004400
Mg  3.1461627600  1.8164379200  0.0000000000
Mg  0.0000000000  0.0000000000  15.0318944800
Mg  0.0000000000  0.0000000000  5.2113063800
4
scale = 2.05000
Li  3.2248168290  1.8618488680  10.3746404510
Mg  3.2248168290  1.8618488680  0.0000000000
Mg  0.0000000000  0.0000000000  15.4076918420
Mg  0.0000000000  0.0000000000  5.3415890395
4
scale = 2.10000
Li  3.3034708980  1.9072598160  10.6276804620
Mg  3.3034708980  1.9072598160  0.0000000000
Mg  0.0000000000  0.0000000000  15.7834892040
Mg  0.0000000000  0.0000000000  5.4718716990
4
scale = 2.15000
Li  3.3821249670  1.9526707640  10.8807204730
Mg  3.3821249670  1.9526707640  0.0000000000
Mg  0.0000000000  0.0000000000  16.1592865660
Mg  0.0000000000  0.0000000000  5.6021543585
4
scale = 2.20000
Li  3.4607790360  1.9980817120  11.1337604840
Mg  3.4607790360  1.9980817120  0.0000000000
Mg  0.0000000000  0.0000000000  16.5350839280
Mg  0.0000000000  0.0000000000  5.7324370180
4
scale = 2.25000
Li  3.5394331050  2.0434926600  11.3868004950
Mg  3.5394331050  2.0434926600  0.0000000000
Mg  0.0000000000  0.0000000000  16.9108812900
Mg  0.0000000000  0.0000000000  5.8627196775
4
scale = 2.30000
Li  3.6180871740  2.0889036080  11.6398405060
Mg  3.6180871740  2.0889036080  0.0000000000
Mg  0.0000000000  0.0000000000  17.2866786520
Mg  0.0000000000  0.0000000000  5.9930023370
4
scale = 2.35000
Li  3.6967412430  2.1343145560  11.8928805170
Mg  3.6967412430  2.1343145560  0.0000000000
Mg  0.0000000000  0.0000000000  17.6624760140
Mg  0.0000000000  0.0000000000  6.1232849965
4
scale = 2.40000
Li  3.7753953120  2.1797255040  12.1459205280
Mg  3.7753953120  2.1797255040  0.0000000000
Mg  0.0000000000  0.0000000000  18.0382733760
Mg  0.0000000000  0.0000000000  6.2535676560
4
scale = 2.45000
Li  3.8540493810  2.2251364520  12.3989605390
Mg  3.8540493810  2.2251364520  0.0000000000
Mg  0.0000000000  0.0000000000  18.4140707380
Mg  0.0000000000  0.0000000000  6.3838503155
