6
scale = 0.75000
Li  2.3481755775  0.7452421275  0.0000000000
Li  0.5811954675  1.1389605900  1.8458505525
Li  4.2417853725  0.3233080425  1.8458505525
Mg  -4.8298609650  2.3446520475  0.0000000000
Mg  -1.3189431375  1.5623494275  0.0000000000
Mg  -3.0223193775  1.9418956800  1.8458505525
6
scale = 0.80000
Li  2.5047206160  0.7949249360  0.0000000000
Li  0.6199418320  1.2148912960  1.9689072560
Li  4.5245710640  0.3448619120  1.9689072560
Mg  -5.1518516960  2.5009621840  0.0000000000
Mg  -1.4068726800  1.6665060560  0.0000000000
Mg  -3.2238073360  2.0713553920  1.9689072560
6
scale = 0.85000
Li  2.6612656545  0.8446077445  0.0000000000
Li  0.6586881965  1.2908220020  2.0919639595
Li  4.8073567555  0.3664157815  2.0919639595
Mg  -5.4738424270  2.6572723205  0.0000000000
Mg  -1.4948022225  1.7706626845  0.0000000000
Mg  -3.4252952945  2.2008151040  2.0919639595
6
scale = 0.90000
Li  2.8178106930  0.8942905530  0.0000000000
Li  0.6974345610  1.3667527080  2.2150206630
Li  5.0901424470  0.3879696510  2.2150206630
Mg  -5.7958331580  2.8135824570  0.0000000000
Mg  -1.5827317650  1.8748193130  0.0000000000
Mg  -3.6267832530  2.3302748160  2.2150206630
6
scale = 0.95000
Li  2.9743557315  0.9439733615  0.0000000000
Li  0.7361809255  1.4426834140  2.3380773665
Li  5.3729281385  0.4095235205  2.3380773665
Mg  -6.1178238890  2.9698925935  0.0000000000
Mg  -1.6706613075  1.9789759415  0.0000000000
Mg  -3.8282712115  2.4597345280  2.3380773665
6
scale = 1.00000
Li  3.1309007700  0.9936561700  0.0000000000
Li  0.7749272900  1.5186141200  2.4611340700
Li  5.6557138300  0.4310773900  2.4611340700
Mg  -6.4398146200  3.1262027300  0.0000000000
Mg  -1.7585908500  2.0831325700  0.0000000000
Mg  -4.0297591700  2.5891942400  2.4611340700
6
scale = 1.05000
Li  3.2874458085  1.0433389785  0.0000000000
Li  0.8136736545  1.5945448260  2.5841907735
Li  5.9384995215  0.4526312595  2.5841907735
Mg  -6.7618053510  3.2825128665  0.0000000000
Mg  -1.8465203925  2.1872891985  0.0000000000
Mg  -4.2312471285  2.7186539520  2.5841907735
6
scale = 1.10000
Li  3.4439908470  1.0930217870  0.0000000000
Li  0.8524200190  1.6704755320  2.7072474770
Li  6.2212852130  0.4741851290  2.7072474770
Mg  -7.0837960820  3.4388230030  0.0000000000
Mg  -1.9344499350  2.2914458270  0.0000000000
Mg  -4.4327350870  2.8481136640  2.7072474770
6
scale = 1.15000
Li  3.6005358855  1.1427045955  0.0000000000
Li  0.8911663835  1.7464062380  2.8303041805
Li  6.5040709045  0.4957389985  2.8303041805
Mg  -7.4057868130  3.5951331395  0.0000000000
Mg  -2.0223794775  2.3956024555  0.0000000000
Mg  -4.6342230455  2.9775733760  2.8303041805
6
scale = 1.20000
Li  3.7570809240  1.1923874040  0.0000000000
Li  0.9299127480  1.8223369440  2.9533608840
Li  6.7868565960  0.5172928680  2.9533608840
Mg  -7.7277775440  3.7514432760  0.0000000000
Mg  -2.1103090200  2.4997590840  0.0000000000
Mg  -4.8357110040  3.1070330880  2.9533608840
6
scale = 1.25000
Li  3.9136259625  1.2420702125  0.0000000000
Li  0.9686591125  1.8982676500  3.0764175875
Li  7.0696422875  0.5388467375  3.0764175875
Mg  -8.0497682750  3.9077534125  0.0000000000
Mg  -2.1982385625  2.6039157125  0.0000000000
Mg  -5.0371989625  3.2364928000  3.0764175875
6
scale = 1.30000
Li  4.0701710010  1.2917530210  0.0000000000
Li  1.0074054770  1.9741983560  3.1994742910
Li  7.3524279790  0.5604006070  3.1994742910
Mg  -8.3717590060  4.0640635490  0.0000000000
Mg  -2.2861681050  2.7080723410  0.0000000000
Mg  -5.2386869210  3.3659525120  3.1994742910
6
scale = 1.35000
Li  4.2267160395  1.3414358295  0.0000000000
Li  1.0461518415  2.0501290620  3.3225309945
Li  7.6352136705  0.5819544765  3.3225309945
Mg  -8.6937497370  4.2203736855  0.0000000000
Mg  -2.3740976475  2.8122289695  0.0000000000
Mg  -5.4401748795  3.4954122240  3.3225309945
6
scale = 1.40000
Li  4.3832610780  1.3911186380  0.0000000000
Li  1.0848982060  2.1260597680  3.4455876980
Li  7.9179993620  0.6035083460  3.4455876980
Mg  -9.0157404680  4.3766838220  0.0000000000
Mg  -2.4620271900  2.9163855980  0.0000000000
Mg  -5.6416628380  3.6248719360  3.4455876980
6
scale = 1.45000
Li  4.5398061165  1.4408014465  0.0000000000
Li  1.1236445705  2.2019904740  3.5686444015
Li  8.2007850535  0.6250622155  3.5686444015
Mg  -9.3377311990  4.5329939585  0.0000000000
Mg  -2.5499567325  3.0205422265  0.0000000000
Mg  -5.8431507965  3.7543316480  3.5686444015
6
scale = 1.50000
Li  4.6963511550  1.4904842550  0.0000000000
Li  1.1623909350  2.2779211800  3.6917011050
Li  8.4835707450  0.6466160850  3.6917011050
Mg  -9.6597219300  4.6893040950  0.0000000000
Mg  -2.6378862750  3.1246988550  0.0000000000
Mg  -6.0446387550  3.8837913600  3.6917011050
6
scale = 1.55000
Li  4.8528961935  1.5401670635  0.0000000000
Li  1.2011372995  2.3538518860  3.8147578085
Li  8.7663564365  0.6681699545  3.8147578085
Mg  -9.9817126610  4.8456142315  0.0000000000
Mg  -2.7258158175  3.2288554835  0.0000000000
Mg  -6.2461267135  4.0132510720  3.8147578085
6
scale = 1.60000
Li  5.0094412320  1.5898498720  0.0000000000
Li  1.2398836640  2.4297825920  3.9378145120
Li  9.0491421280  0.6897238240  3.9378145120
Mg  -10.3037033920  5.0019243680  0.0000000000
Mg  -2.8137453600  3.3330121120  0.0000000000
Mg  -6.4476146720  4.1427107840  3.9378145120
6
scale = 1.65000
Li  5.1659862705  1.6395326805  0.0000000000
Li  1.2786300285  2.5057132980  4.0608712155
Li  9.3319278195  0.7112776935  4.0608712155
Mg  -10.6256941230  5.1582345045  0.0000000000
Mg  -2.9016749025  3.4371687405  0.0000000000
Mg  -6.6491026305  4.2721704960  4.0608712155
6
scale = 1.70000
Li  5.3225313090  1.6892154890  0.0000000000
Li  1.3173763930  2.5816440040  4.1839279190
Li  9.6147135110  0.7328315630  4.1839279190
Mg  -10.9476848540  5.3145446410  0.0000000000
Mg  -2.9896044450  3.5413253690  0.0000000000
Mg  -6.8505905890  4.4016302080  4.1839279190
6
scale = 1.75000
Li  5.4790763475  1.7388982975  0.0000000000
Li  1.3561227575  2.6575747100  4.3069846225
Li  9.8974992025  0.7543854325  4.3069846225
Mg  -11.2696755850  5.4708547775  0.0000000000
Mg  -3.0775339875  3.6454819975  0.0000000000
Mg  -7.0520785475  4.5310899200  4.3069846225
6
scale = 1.80000
Li  5.6356213860  1.7885811060  0.0000000000
Li  1.3948691220  2.7335054160  4.4300413260
Li  10.1802848940  0.7759393020  4.4300413260
Mg  -11.5916663160  5.6271649140  0.0000000000
Mg  -3.1654635300  3.7496386260  0.0000000000
Mg  -7.2535665060  4.6605496320  4.4300413260
6
scale = 1.85000
Li  5.7921664245  1.8382639145  0.0000000000
Li  1.4336154865  2.8094361220  4.5530980295
Li  10.4630705855  0.7974931715  4.5530980295
Mg  -11.9136570470  5.7834750505  0.0000000000
Mg  -3.2533930725  3.8537952545  0.0000000000
Mg  -7.4550544645  4.7900093440  4.5530980295
6
scale = 1.90000
Li  5.9487114630  1.8879467230  0.0000000000
Li  1.4723618510  2.8853668280  4.6761547330
Li  10.7458562770  0.8190470410  4.6761547330
Mg  -12.2356477780  5.9397851870  0.0000000000
Mg  -3.3413226150  3.9579518830  0.0000000000
Mg  -7.6565424230  4.9194690560  4.6761547330
6
scale = 1.95000
Li  6.1052565015  1.9376295315  0.0000000000
Li  1.5111082155  2.9612975340  4.7992114365
Li  11.0286419685  0.8406009105  4.7992114365
Mg  -12.5576385090  6.0960953235  0.0000000000
Mg  -3.4292521575  4.0621085115  0.0000000000
Mg  -7.8580303815  5.0489287680  4.7992114365
6
scale = 2.00000
Li  6.2618015400  1.9873123400  0.0000000000
Li  1.5498545800  3.0372282400  4.9222681400
Li  11.3114276600  0.8621547800  4.9222681400
Mg  -12.8796292400  6.2524054600  0.0000000000
Mg  -3.5171817000  4.1662651400  0.0000000000
Mg  -8.0595183400  5.1783884800  4.9222681400
6
scale = 2.05000
Li  6.4183465785  2.0369951485  0.0000000000
Li  1.5886009445  3.1131589460  5.0453248435
Li  11.5942133515  0.8837086495  5.0453248435
Mg  -13.2016199710  6.4087155965  0.0000000000
Mg  -3.6051112425  4.2704217685  0.0000000000
Mg  -8.2610062985  5.3078481920  5.0453248435
6
scale = 2.10000
Li  6.5748916170  2.0866779570  0.0000000000
Li  1.6273473090  3.1890896520  5.1683815470
Li  11.8769990430  0.9052625190  5.1683815470
Mg  -13.5236107020  6.5650257330  0.0000000000
Mg  -3.6930407850  4.3745783970  0.0000000000
Mg  -8.4624942570  5.4373079040  5.1683815470
6
scale = 2.15000
Li  6.7314366555  2.1363607655  0.0000000000
Li  1.6660936735  3.2650203580  5.2914382505
Li  12.1597847345  0.9268163885  5.2914382505
Mg  -13.8456014330  6.7213358695  0.0000000000
Mg  -3.7809703275  4.4787350255  0.0000000000
Mg  -8.6639822155  5.5667676160  5.2914382505
6
scale = 2.20000
Li  6.8879816940  2.1860435740  0.0000000000
Li  1.7048400380  3.3409510640  5.4144949540
Li  12.4425704260  0.9483702580  5.4144949540
Mg  -14.1675921640  6.8776460060  0.0000000000
Mg  -3.8688998700  4.5828916540  0.0000000000
Mg  -8.8654701740  5.6962273280  5.4144949540
6
scale = 2.25000
Li  7.0445267325  2.2357263825  0.0000000000
Li  1.7435864025  3.4168817700  5.5375516575
Li  12.7253561175  0.9699241275  5.5375516575
Mg  -14.4895828950  7.0339561425  0.0000000000
Mg  -3.9568294125  4.6870482825  0.0000000000
Mg  -9.0669581325  5.8256870400  5.5375516575
6
scale = 2.30000
Li  7.2010717710  2.2854091910  0.0000000000
Li  1.7823327670  3.4928124760  5.6606083610
Li  13.0081418090  0.9914779970  5.6606083610
Mg  -14.8115736260  7.1902662790  0.0000000000
Mg  -4.0447589550  4.7912049110  0.0000000000
Mg  -9.2684460910  5.9551467520  5.6606083610
6
scale = 2.35000
Li  7.3576168095  2.3350919995  0.0000000000
Li  1.8210791315  3.5687431820  5.7836650645
Li  13.2909275005  1.0130318665  5.7836650645
Mg  -15.1335643570  7.3465764155  0.0000000000
Mg  -4.1326884975  4.8953615395  0.0000000000
Mg  -9.4699340495  6.0846064640  5.7836650645
6
scale = 2.40000
Li  7.5141618480  2.3847748080  0.0000000000
Li  1.8598254960  3.6446738880  5.9067217680
Li  13.5737131920  1.0345857360  5.9067217680
Mg  -15.4555550880  7.5028865520  0.0000000000
Mg  -4.2206180400  4.9995181680  0.0000000000
Mg  -9.6714220080  6.2140661760  5.9067217680
6
scale = 2.45000
Li  7.6707068865  2.4344576165  0.0000000000
Li  1.8985718605  3.7206045940  6.0297784715
Li  13.8564988835  1.0561396055  6.0297784715
Mg  -15.7775458190  7.6591966885  0.0000000000
Mg  -4.3085475825  5.1036747965  0.0000000000
Mg  -9.8729099665  6.3435258880  6.0297784715
