4
scale = 0.75000
Li  0.0000000000  0.0000000000  0.0000000000
Mg  1.6541508750  1.6541508750  0.0000000000
Mg  1.6541508750  0.0000000000  1.6541508750
Mg  -0.0000000000  1.6541508750  1.6541508750
4
scale = 0.80000
Li  0.0000000000  0.0000000000  0.0000000000
Mg  1.7644276000  1.7644276000  0.0000000000
Mg  1.7644276000  0.0000000000  1.7644276000
Mg  -0.0000000000  1.7644276000  1.7644276000
4
scale = 0.85000
Li  0.0000000000  0.0000000000  0.0000000000
Mg  1.8747043250  1.8747043250  0.0000000000
Mg  1.8747043250  0.0000000000  1.8747043250
Mg  -0.0000000000  1.8747043250  1.8747043250
4
scale = 0.90000
Li  0.0000000000  0.0000000000  0.0000000000
Mg  1.9849810500  1.9849810500  0.0000000000
Mg  1.9849810500  0.0000000000  1.9849810500
Mg  -0.0000000000  1.9849810500  1.9849810500
4
scale = 0.95000
Li  0.0000000000  0.0000000000  0.0000000000
Mg  2.0952577750  2.0952577750  0.0000000000
Mg  2.0952577750  0.0000000000  2.0952577750
Mg  -0.0000000000  2.0952577750  2.0952577750
4
scale = 1.00000
Li  0.0000000000  0.0000000000  0.0000000000
Mg  2.2055345000  2.2055345000  0.0000000000
Mg  2.2055345000  0.0000000000  2.2055345000
Mg  -0.0000000000  2.2055345000  2.2055345000
4
scale = 1.05000
Li  0.0000000000  0.0000000000  0.0000000000
Mg  2.3158112250  2.3158112250  0.0000000000
Mg  2.3158112250  0.0000000000  2.3158112250
Mg  -0.0000000000  2.3158112250  2.3158112250
4
scale = 1.10000
Li  0.0000000000  0.0000000000  0.0000000000
Mg  2.4260879500  2.4260879500  0.0000000000
Mg  2.4260879500  0.0000000000  2.4260879500
Mg  -0.0000000000  2.4260879500  2.4260879500
4
scale = 1.15000
Li  0.0000000000  0.0000000000  0.0000000000
Mg  2.5363646750  2.5363646750  0.0000000000
Mg  2.5363646750  0.0000000000  2.5363646750
Mg  -0.0000000000  2.5363646750  2.5363646750
4
scale = 1.20000
Li  0.0000000000  0.0000000000  0.0000000000
Mg  2.6466414000  2.6466414000  0.0000000000
Mg  2.6466414000  0.0000000000  2.6466414000
Mg  -0.0000000000  2.6466414000  2.6466414000
4
scale = 1.25000
Li  0.0000000000  0.0000000000  0.0000000000
Mg  2.7569181250  2.7569181250  0.0000000000
Mg  2.7569181250  0.0000000000  2.7569181250
Mg  -0.0000000000  2.7569181250  2.7569181250
4
scale = 1.30000
Li  0.0000000000  0.0000000000  0.0000000000
Mg  2.8671948500  2.8671948500  0.0000000000
Mg  2.8671948500  0.0000000000  2.8671948500
Mg  -0.0000000000  2.8671948500  2.8671948500
4
scale = 1.35000
Li  0.0000000000  0.0000000000  0.0000000000
Mg  2.9774715750  2.9774715750  0.0000000000
Mg  2.9774715750  0.0000000000  2.9774715750
Mg  -0.0000000000  2.9774715750  2.9774715750
4
scale = 1.40000
Li  0.0000000000  0.0000000000  0.0000000000
Mg  3.0877483000  3.0877483000  0.0000000000
Mg  3.0877483000  0.0000000000  3.0877483000
Mg  -0.0000000000  3.0877483000  3.0877483000
4
scale = 1.45000
Li  0.0000000000  0.0000000000  0.0000000000
Mg  3.1980250250  3.1980250250  0.0000000000
Mg  3.1980250250  0.0000000000  3.1980250250
Mg  -0.0000000000  3.1980250250  3.1980250250
4
scale = 1.50000
Li  0.0000000000  0.0000000000  0.0000000000
Mg  3.3083017500  3.3083017500  0.0000000000
Mg  3.3083017500  0.0000000000  3.3083017500
Mg  -0.0000000000  3.3083017500  3.3083017500
4
scale = 1.55000
Li  0.0000000000  0.0000000000  0.0000000000
Mg  3.4185784750  3.4185784750  0.0000000000
Mg  3.4185784750  0.0000000000  3.4185784750
Mg  -0.0000000000  3.4185784750  3.4185784750
4
scale = 1.60000
Li  0.0000000000  0.0000000000  0.0000000000
Mg  3.5288552000  3.5288552000  0.0000000000
Mg  3.5288552000  0.0000000000  3.5288552000
Mg  -0.0000000000  3.5288552000  3.5288552000
4
scale = 1.65000
Li  0.0000000000  0.0000000000  0.0000000000
Mg  3.6391319250  3.6391319250  0.0000000000
Mg  3.6391319250  0.0000000000  3.6391319250
Mg  -0.0000000000  3.6391319250  3.6391319250
4
scale = 1.70000
Li  0.0000000000  0.0000000000  0.0000000000
Mg  3.7494086500  3.7494086500  0.0000000000
Mg  3.7494086500  0.0000000000  3.7494086500
Mg  -0.0000000000  3.7494086500  3.7494086500
4
scale = 1.75000
Li  0.0000000000  0.0000000000  0.0000000000
Mg  3.8596853750  3.8596853750  0.0000000000
Mg  3.8596853750  0.0000000000  3.8596853750
Mg  -0.0000000000  3.8596853750  3.8596853750
4
scale = 1.80000
Li  0.0000000000  0.0000000000  0.0000000000
Mg  3.9699621000  3.9699621000  0.0000000000
Mg  3.9699621000  0.0000000000  3.9699621000
Mg  -0.0000000000  3.9699621000  3.9699621000
4
scale = 1.85000
Li  0.0000000000  0.0000000000  0.0000000000
Mg  4.0802388250  4.0802388250  0.0000000000
Mg  4.0802388250  0.0000000000  4.0802388250
Mg  -0.0000000000  4.0802388250  4.0802388250
4
scale = 1.90000
Li  0.0000000000  0.0000000000  0.0000000000
Mg  4.1905155500  4.1905155500  0.0000000000
Mg  4.1905155500  0.0000000000  4.1905155500
Mg  -0.0000000000  4.1905155500  4.1905155500
4
scale = 1.95000
Li  0.0000000000  0.0000000000  0.0000000000
Mg  4.3007922750  4.3007922750  0.0000000000
Mg  4.3007922750  0.0000000000  4.3007922750
Mg  -0.0000000000  4.3007922750  4.3007922750
4
scale = 2.00000
Li  0.0000000000  0.0000000000  0.0000000000
Mg  4.4110690000  4.4110690000  0.0000000000
Mg  4.4110690000  0.0000000000  4.4110690000
Mg  -0.0000000000  4.4110690000  4.4110690000
4
scale = 2.05000
Li  0.0000000000  0.0000000000  0.0000000000
Mg  4.5213457250  4.5213457250  0.0000000000
Mg  4.5213457250  0.0000000000  4.5213457250
Mg  -0.0000000000  4.5213457250  4.5213457250
4
scale = 2.10000
Li  0.0000000000  0.0000000000  0.0000000000
Mg  4.6316224500  4.6316224500  0.0000000000
Mg  4.6316224500  0.0000000000  4.6316224500
Mg  -0.0000000000  4.6316224500  4.6316224500
4
scale = 2.15000
Li  0.0000000000  0.0000000000  0.0000000000
Mg  4.7418991750  4.7418991750  0.0000000000
Mg  4.7418991750  0.0000000000  4.7418991750
Mg  -0.0000000000  4.7418991750  4.7418991750
4
scale = 2.20000
Li  0.0000000000  0.0000000000  0.0000000000
Mg  4.8521759000  4.8521759000  0.0000000000
Mg  4.8521759000  0.0000000000  4.8521759000
Mg  -0.0000000000  4.8521759000  4.8521759000
4
scale = 2.25000
Li  0.0000000000  0.0000000000  0.0000000000
Mg  4.9624526250  4.9624526250  0.0000000000
Mg  4.9624526250  0.0000000000  4.9624526250
Mg  -0.0000000000  4.9624526250  4.9624526250
4
scale = 2.30000
Li  0.0000000000  0.0000000000  0.0000000000
Mg  5.0727293500  5.0727293500  0.0000000000
Mg  5.0727293500  0.0000000000  5.0727293500
Mg  -0.0000000000  5.0727293500  5.0727293500
4
scale = 2.35000
Li  0.0000000000  0.0000000000  0.0000000000
Mg  5.1830060750  5.1830060750  0.0000000000
Mg  5.1830060750  0.0000000000  5.1830060750
Mg  -0.0000000000  5.1830060750  5.1830060750
4
scale = 2.40000
Li  0.0000000000  0.0000000000  0.0000000000
Mg  5.2932828000  5.2932828000  0.0000000000
Mg  5.2932828000  0.0000000000  5.2932828000
Mg  -0.0000000000  5.2932828000  5.2932828000
4
scale = 2.45000
Li  0.0000000000  0.0000000000  0.0000000000
Mg  5.4035595250  5.4035595250  0.0000000000
Mg  5.4035595250  0.0000000000  5.4035595250
Mg  -0.0000000000  5.4035595250  5.4035595250
