2
scale = 0.75000
Li  0.7231468650  1.0122932775  -1.2186462825
N   1.4316735375  0.5061466425  0.0256761600
2
scale = 0.80000
Li  0.7713566560  1.0797794960  -1.2998893680
N   1.5271184400  0.5398897520  0.0273879040
2
scale = 0.85000
Li  0.8195664470  1.1472657145  -1.3811324535
N   1.6225633425  0.5736328615  0.0290996480
2
scale = 0.90000
Li  0.8677762380  1.2147519330  -1.4623755390
N   1.7180082450  0.6073759710  0.0308113920
2
scale = 0.95000
Li  0.9159860290  1.2822381515  -1.5436186245
N   1.8134531475  0.6411190805  0.0325231360
2
scale = 1.00000
Li  0.9641958200  1.3497243700  -1.6248617100
N   1.9088980500  0.6748621900  0.0342348800
2
scale = 1.05000
Li  1.0124056110  1.4172105885  -1.7061047955
N   2.0043429525  0.7086052995  0.0359466240
2
scale = 1.10000
Li  1.0606154020  1.4846968070  -1.7873478810
N   2.0997878550  0.7423484090  0.0376583680
2
scale = 1.15000
Li  1.1088251930  1.5521830255  -1.8685909665
N   2.1952327575  0.7760915185  0.0393701120
2
scale = 1.20000
Li  1.1570349840  1.6196692440  -1.9498340520
N   2.2906776600  0.8098346280  0.0410818560
2
scale = 1.25000
Li  1.2052447750  1.6871554625  -2.0310771375
N   2.3861225625  0.8435777375  0.0427936000
2
scale = 1.30000
Li  1.2534545660  1.7546416810  -2.1123202230
N   2.4815674650  0.8773208470  0.0445053440
2
scale = 1.35000
Li  1.3016643570  1.8221278995  -2.1935633085
N   2.5770123675  0.9110639565  0.0462170880
2
scale = 1.40000
Li  1.3498741480  1.8896141180  -2.2748063940
N   2.6724572700  0.9448070660  0.0479288320
2
scale = 1.45000
Li  1.3980839390  1.9571003365  -2.3560494795
N   2.7679021725  0.9785501755  0.0496405760
2
scale = 1.50000
Li  1.4462937300  2.0245865550  -2.4372925650
N   2.8633470750  1.0122932850  0.0513523200
2
scale = 1.55000
Li  1.4945035210  2.0920727735  -2.5185356505
N   2.9587919775  1.0460363945  0.0530640640
2
scale = 1.60000
Li  1.5427133120  2.1595589920  -2.5997787360
N   3.0542368800  1.0797795040  0.0547758080
2
scale = 1.65000
Li  1.5909231030  2.2270452105  -2.6810218215
N   3.1496817825  1.1135226135  0.0564875520
2
scale = 1.70000
Li  1.6391328940  2.2945314290  -2.7622649070
N   3.2451266850  1.1472657230  0.0581992960
2
scale = 1.75000
Li  1.6873426850  2.3620176475  -2.8435079925
N   3.3405715875  1.1810088325  0.0599110400
2
scale = 1.80000
Li  1.7355524760  2.4295038660  -2.9247510780
N   3.4360164900  1.2147519420  0.0616227840
2
scale = 1.85000
Li  1.7837622670  2.4969900845  -3.0059941635
N   3.5314613925  1.2484950515  0.0633345280
2
scale = 1.90000
Li  1.8319720580  2.5644763030  -3.0872372490
N   3.6269062950  1.2822381610  0.0650462720
2
scale = 1.95000
Li  1.8801818490  2.6319625215  -3.1684803345
N   3.7223511975  1.3159812705  0.0667580160
2
scale = 2.00000
Li  1.9283916400  2.6994487400  -3.2497234200
N   3.8177961000  1.3497243800  0.0684697600
2
scale = 2.05000
Li  1.9766014310  2.7669349585  -3.3309665055
N   3.9132410025  1.3834674895  0.0701815040
2
scale = 2.10000
Li  2.0248112220  2.8344211770  -3.4122095910
N   4.0086859050  1.4172105990  0.0718932480
2
scale = 2.15000
Li  2.0730210130  2.9019073955  -3.4934526765
N   4.1041308075  1.4509537085  0.0736049920
2
scale = 2.20000
Li  2.1212308040  2.9693936140  -3.5746957620
N   4.1995757100  1.4846968180  0.0753167360
2
scale = 2.25000
Li  2.1694405950  3.0368798325  -3.6559388475
N   4.2950206125  1.5184399275  0.0770284800
2
scale = 2.30000
Li  2.2176503860  3.1043660510  -3.7371819330
N   4.3904655150  1.5521830370  0.0787402240
2
scale = 2.35000
Li  2.2658601770  3.1718522695  -3.8184250185
N   4.4859104175  1.5859261465  0.0804519680
2
scale = 2.40000
Li  2.3140699680  3.2393384880  -3.8996681040
N   4.5813553200  1.6196692560  0.0821637120
2
scale = 2.45000
Li  2.3622797590  3.3068247065  -3.9809111895
N   4.6768002225  1.6534123655  0.0838754560
