6
scale = 0.75000
Li  0.1665981525  2.0107218900  3.0323143575
Li  1.9009345050  0.6761697075  3.0323143575
O   0.0206239350  2.1230473950  1.4793002400
O   2.0469087225  0.5638442025  1.4793002400
O   1.6346037225  2.1242726175  2.3628515100
O   0.4329289350  0.5626189800  3.7017772050
6
scale = 0.80000
Li  0.1777046960  2.1447700160  3.2344686480
Li  2.0276634720  0.7212476880  3.2344686480
O   0.0219988640  2.2645838880  1.5779202560
O   2.1833693040  0.6014338160  1.5779202560
O   1.7435773040  2.2658907920  2.5203749440
O   0.4617908640  0.6001269120  3.9485623520
6
scale = 0.85000
Li  0.1888112395  2.2788181420  3.4366229385
Li  2.1543924390  0.7663256685  3.4366229385
O   0.0233737930  2.4061203810  1.6765402720
O   2.3198298855  0.6390234295  1.6765402720
O   1.8525508855  2.4075089665  2.6778983780
O   0.4906527930  0.6376348440  4.1953474990
6
scale = 0.90000
Li  0.1999177830  2.4128662680  3.6387772290
Li  2.2811214060  0.8114036490  3.6387772290
O   0.0247487220  2.5476568740  1.7751602880
O   2.4562904670  0.6766130430  1.7751602880
O   1.9615244670  2.5491271410  2.8354218120
O   0.5195147220  0.6751427760  4.4421326460
6
scale = 0.95000
Li  0.2110243265  2.5469143940  3.8409315195
Li  2.4078503730  0.8564816295  3.8409315195
O   0.0261236510  2.6891933670  1.8737803040
O   2.5927510485  0.7142026565  1.8737803040
O   2.0704980485  2.6907453155  2.9929452460
O   0.5483766510  0.7126507080  4.6889177930
6
scale = 1.00000
Li  0.2221308700  2.6809625200  4.0430858100
Li  2.5345793400  0.9015596100  4.0430858100
O   0.0274985800  2.8307298600  1.9724003200
O   2.7292116300  0.7517922700  1.9724003200
O   2.1794716300  2.8323634900  3.1504686800
O   0.5772385800  0.7501586400  4.9357029400
6
scale = 1.05000
Li  0.2332374135  2.8150106460  4.2452401005
Li  2.6613083070  0.9466375905  4.2452401005
O   0.0288735090  2.9722663530  2.0710203360
O   2.8656722115  0.7893818835  2.0710203360
O   2.2884452115  2.9739816645  3.3079921140
O   0.6061005090  0.7876665720  5.1824880870
6
scale = 1.10000
Li  0.2443439570  2.9490587720  4.4473943910
Li  2.7880372740  0.9917155710  4.4473943910
O   0.0302484380  3.1138028460  2.1696403520
O   3.0021327930  0.8269714970  2.1696403520
O   2.3974187930  3.1155998390  3.4655155480
O   0.6349624380  0.8251745040  5.4292732340
6
scale = 1.15000
Li  0.2554505005  3.0831068980  4.6495486815
Li  2.9147662410  1.0367935515  4.6495486815
O   0.0316233670  3.2553393390  2.2682603680
O   3.1385933745  0.8645611105  2.2682603680
O   2.5063923745  3.2572180135  3.6230389820
O   0.6638243670  0.8626824360  5.6760583810
6
scale = 1.20000
Li  0.2665570440  3.2171550240  4.8517029720
Li  3.0414952080  1.0818715320  4.8517029720
O   0.0329982960  3.3968758320  2.3668803840
O   3.2750539560  0.9021507240  2.3668803840
O   2.6153659560  3.3988361880  3.7805624160
O   0.6926862960  0.9001903680  5.9228435280
6
scale = 1.25000
Li  0.2776635875  3.3512031500  5.0538572625
Li  3.1682241750  1.1269495125  5.0538572625
O   0.0343732250  3.5384123250  2.4655004000
O   3.4115145375  0.9397403375  2.4655004000
O   2.7243395375  3.5404543625  3.9380858500
O   0.7215482250  0.9376983000  6.1696286750
6
scale = 1.30000
Li  0.2887701310  3.4852512760  5.2560115530
Li  3.2949531420  1.1720274930  5.2560115530
O   0.0357481540  3.6799488180  2.5641204160
O   3.5479751190  0.9773299510  2.5641204160
O   2.8333131190  3.6820725370  4.0956092840
O   0.7504101540  0.9752062320  6.4164138220
6
scale = 1.35000
Li  0.2998766745  3.6192994020  5.4581658435
Li  3.4216821090  1.2171054735  5.4581658435
O   0.0371230830  3.8214853110  2.6627404320
O   3.6844357005  1.0149195645  2.6627404320
O   2.9422867005  3.8236907115  4.2531327180
O   0.7792720830  1.0127141640  6.6631989690
6
scale = 1.40000
Li  0.3109832180  3.7533475280  5.6603201340
Li  3.5484110760  1.2621834540  5.6603201340
O   0.0384980120  3.9630218040  2.7613604480
O   3.8208962820  1.0525091780  2.7613604480
O   3.0512602820  3.9653088860  4.4106561520
O   0.8081340120  1.0502220960  6.9099841160
6
scale = 1.45000
Li  0.3220897615  3.8873956540  5.8624744245
Li  3.6751400430  1.3072614345  5.8624744245
O   0.0398729410  4.1045582970  2.8599804640
O   3.9573568635  1.0900987915  2.8599804640
O   3.1602338635  4.1069270605  4.5681795860
O   0.8369959410  1.0877300280  7.1567692630
6
scale = 1.50000
Li  0.3331963050  4.0214437800  6.0646287150
Li  3.8018690100  1.3523394150  6.0646287150
O   0.0412478700  4.2460947900  2.9586004800
O   4.0938174450  1.1276884050  2.9586004800
O   3.2692074450  4.2485452350  4.7257030200
O   0.8658578700  1.1252379600  7.4035544100
6
scale = 1.55000
Li  0.3443028485  4.1554919060  6.2667830055
Li  3.9285979770  1.3974173955  6.2667830055
O   0.0426227990  4.3876312830  3.0572204960
O   4.2302780265  1.1652780185  3.0572204960
O   3.3781810265  4.3901634095  4.8832264540
O   0.8947197990  1.1627458920  7.6503395570
6
scale = 1.60000
Li  0.3554093920  4.2895400320  6.4689372960
Li  4.0553269440  1.4424953760  6.4689372960
O   0.0439977280  4.5291677760  3.1558405120
O   4.3667386080  1.2028676320  3.1558405120
O   3.4871546080  4.5317815840  5.0407498880
O   0.9235817280  1.2002538240  7.8971247040
6
scale = 1.65000
Li  0.3665159355  4.4235881580  6.6710915865
Li  4.1820559110  1.4875733565  6.6710915865
O   0.0453726570  4.6707042690  3.2544605280
O   4.5031991895  1.2404572455  3.2544605280
O   3.5961281895  4.6733997585  5.1982733220
O   0.9524436570  1.2377617560  8.1439098510
6
scale = 1.70000
Li  0.3776224790  4.5576362840  6.8732458770
Li  4.3087848780  1.5326513370  6.8732458770
O   0.0467475860  4.8122407620  3.3530805440
O   4.6396597710  1.2780468590  3.3530805440
O   3.7051017710  4.8150179330  5.3557967560
O   0.9813055860  1.2752696880  8.3906949980
6
scale = 1.75000
Li  0.3887290225  4.6916844100  7.0754001675
Li  4.4355138450  1.5777293175  7.0754001675
O   0.0481225150  4.9537772550  3.4517005600
O   4.7761203525  1.3156364725  3.4517005600
O   3.8140753525  4.9566361075  5.5133201900
O   1.0101675150  1.3127776200  8.6374801450
6
scale = 1.80000
Li  0.3998355660  4.8257325360  7.2775544580
Li  4.5622428120  1.6228072980  7.2775544580
O   0.0494974440  5.0953137480  3.5503205760
O   4.9125809340  1.3532260860  3.5503205760
O   3.9230489340  5.0982542820  5.6708436240
O   1.0390294440  1.3502855520  8.8842652920
6
scale = 1.85000
Li  0.4109421095  4.9597806620  7.4797087485
Li  4.6889717790  1.6678852785  7.4797087485
O   0.0508723730  5.2368502410  3.6489405920
O   5.0490415155  1.3908156995  3.6489405920
O   4.0320225155  5.2398724565  5.8283670580
O   1.0678913730  1.3877934840  9.1310504390
6
scale = 1.90000
Li  0.4220486530  5.0938287880  7.6818630390
Li  4.8157007460  1.7129632590  7.6818630390
O   0.0522473020  5.3783867340  3.7475606080
O   5.1855020970  1.4284053130  3.7475606080
O   4.1409960970  5.3814906310  5.9858904920
O   1.0967533020  1.4253014160  9.3778355860
6
scale = 1.95000
Li  0.4331551965  5.2278769140  7.8840173295
Li  4.9424297130  1.7580412395  7.8840173295
O   0.0536222310  5.5199232270  3.8461806240
O   5.3219626785  1.4659949265  3.8461806240
O   4.2499696785  5.5231088055  6.1434139260
O   1.1256152310  1.4628093480  9.6246207330
6
scale = 2.00000
Li  0.4442617400  5.3619250400  8.0861716200
Li  5.0691586800  1.8031192200  8.0861716200
O   0.0549971600  5.6614597200  3.9448006400
O   5.4584232600  1.5035845400  3.9448006400
O   4.3589432600  5.6647269800  6.3009373600
O   1.1544771600  1.5003172800  9.8714058800
6
scale = 2.05000
Li  0.4553682835  5.4959731660  8.2883259105
Li  5.1958876470  1.8481972005  8.2883259105
O   0.0563720890  5.8029962130  4.0434206560
O   5.5948838415  1.5411741535  4.0434206560
O   4.4679168415  5.8063451545  6.4584607940
O   1.1833390890  1.5378252120  10.1181910270
6
scale = 2.10000
Li  0.4664748270  5.6300212920  8.4904802010
Li  5.3226166140  1.8932751810  8.4904802010
O   0.0577470180  5.9445327060  4.1420406720
O   5.7313444230  1.5787637670  4.1420406720
O   4.5768904230  5.9479633290  6.6159842280
O   1.2122010180  1.5753331440  10.3649761740
6
scale = 2.15000
Li  0.4775813705  5.7640694180  8.6926344915
Li  5.4493455810  1.9383531615  8.6926344915
O   0.0591219470  6.0860691990  4.2406606880
O   5.8678050045  1.6163533805  4.2406606880
O   4.6858640045  6.0895815035  6.7735076620
O   1.2410629470  1.6128410760  10.6117613210
6
scale = 2.20000
Li  0.4886879140  5.8981175440  8.8947887820
Li  5.5760745480  1.9834311420  8.8947887820
O   0.0604968760  6.2276056920  4.3392807040
O   6.0042655860  1.6539429940  4.3392807040
O   4.7948375860  6.2311996780  6.9310310960
O   1.2699248760  1.6503490080  10.8585464680
6
scale = 2.25000
Li  0.4997944575  6.0321656700  9.0969430725
Li  5.7028035150  2.0285091225  9.0969430725
O   0.0618718050  6.3691421850  4.4379007200
O   6.1407261675  1.6915326075  4.4379007200
O   4.9038111675  6.3728178525  7.0885545300
O   1.2987868050  1.6878569400  11.1053316150
6
scale = 2.30000
Li  0.5109010010  6.1662137960  9.2990973630
Li  5.8295324820  2.0735871030  9.2990973630
O   0.0632467340  6.5106786780  4.5365207360
O   6.2771867490  1.7291222210  4.5365207360
O   5.0127847490  6.5144360270  7.2460779640
O   1.3276487340  1.7253648720  11.3521167620
6
scale = 2.35000
Li  0.5220075445  6.3002619220  9.5012516535
Li  5.9562614490  2.1186650835  9.5012516535
O   0.0646216630  6.6522151710  4.6351407520
O   6.4136473305  1.7667118345  4.6351407520
O   5.1217583305  6.6560542015  7.4036013980
O   1.3565106630  1.7628728040  11.5989019090
6
scale = 2.40000
Li  0.5331140880  6.4343100480  9.7034059440
Li  6.0829904160  2.1637430640  9.7034059440
O   0.0659965920  6.7937516640  4.7337607680
O   6.5501079120  1.8043014480  4.7337607680
O   5.2307319120  6.7976723760  7.5611248320
O   1.3853725920  1.8003807360  11.8456870560
6
scale = 2.45000
Li  0.5442206315  6.5683581740  9.9055602345
Li  6.2097193830  2.2088210445  9.9055602345
O   0.0673715210  6.9352881570  4.8323807840
O   6.6865684935  1.8418910615  4.8323807840
O   5.3397054935  6.9392905505  7.7186482660
O   1.4142345210  1.8378886680  12.0924722030
