9
scale = 0.75000
Li  2.5718276475  3.6764861325  4.3639844325
O   2.8894020900  0.9876318450  4.6607287725
O   0.6600049575  0.8707205025  3.5489112225
O   1.1950545750  2.7767763300  2.2250145300
O   3.4163839575  2.8580497575  3.3615421200
O   2.8024375200  0.7200681525  2.1734692800
O   1.2207147075  3.0953772975  4.3736627925
O   0.5607814200  0.5146265550  1.0317195600
O   3.4603500600  3.3713838450  5.5666842000
9
scale = 0.80000
Li  2.7432828240  3.9215852080  4.6549167280
O   3.0820288960  1.0534739680  4.9714440240
O   0.7040052880  0.9287685360  3.7855053040
O   1.2747248800  2.9618947520  2.3733488320
O   3.6441428880  3.0485864080  3.5856449280
O   2.9892666880  0.7680726960  2.3183672320
O   1.3020956880  3.3017357840  4.6652403120
O   0.5981668480  0.5489349920  1.1005008640
O   3.6910400640  3.5961427680  5.9377964800
9
scale = 0.85000
Li  2.9147380005  4.1666842835  4.9458490235
O   3.2746557020  1.1193160910  5.2821592755
O   0.7480056185  0.9868165695  4.0220993855
O   1.3543951850  3.1470131740  2.5216831340
O   3.8719018185  3.2391230585  3.8097477360
O   3.1760958560  0.8160772395  2.4632651840
O   1.3834766685  3.5080942705  4.9568178315
O   0.6355522760  0.5832434290  1.1692821680
O   3.9217300680  3.8209016910  6.3089087600
9
scale = 0.90000
Li  3.0861931770  4.4117833590  5.2367813190
O   3.4672825080  1.1851582140  5.5928745270
O   0.7920059490  1.0448646030  4.2586934670
O   1.4340654900  3.3321315960  2.6700174360
O   4.0996607490  3.4296597090  4.0338505440
O   3.3629250240  0.8640817830  2.6081631360
O   1.4648576490  3.7144527570  5.2483953510
O   0.6729377040  0.6175518660  1.2380634720
O   4.1524200720  4.0456606140  6.6800210400
9
scale = 0.95000
Li  3.2576483535  4.6568824345  5.5277136145
O   3.6599093140  1.2510003370  5.9035897785
O   0.8360062795  1.1029126365  4.4952875485
O   1.5137357950  3.5172500180  2.8183517380
O   4.3274196795  3.6201963595  4.2579533520
O   3.5497541920  0.9120863265  2.7530610880
O   1.5462386295  3.9208112435  5.5399728705
O   0.7103231320  0.6518603030  1.3068447760
O   4.3831100760  4.2704195370  7.0511333200
9
scale = 1.00000
Li  3.4291035300  4.9019815100  5.8186459100
O   3.8525361200  1.3168424600  6.2143050300
O   0.8800066100  1.1609606700  4.7318816300
O   1.5934061000  3.7023684400  2.9666860400
O   4.5551786100  3.8107330100  4.4820561600
O   3.7365833600  0.9600908700  2.8979590400
O   1.6276196100  4.1271697300  5.8315503900
O   0.7477085600  0.6861687400  1.3756260800
O   4.6138000800  4.4951784600  7.4222456000
9
scale = 1.05000
Li  3.6005587065  5.1470805855  6.1095782055
O   4.0451629260  1.3826845830  6.5250202815
O   0.9240069405  1.2190087035  4.9684757115
O   1.6730764050  3.8874868620  3.1150203420
O   4.7829375405  4.0012696605  4.7061589680
O   3.9234125280  1.0080954135  3.0428569920
O   1.7090005905  4.3335282165  6.1231279095
O   0.7850939880  0.7204771770  1.4444073840
O   4.8444900840  4.7199373830  7.7933578800
9
scale = 1.10000
Li  3.7720138830  5.3921796610  6.4005105010
O   4.2377897320  1.4485267060  6.8357355330
O   0.9680072710  1.2770567370  5.2050697930
O   1.7527467100  4.0726052840  3.2633546440
O   5.0106964710  4.1918063110  4.9302617760
O   4.1102416960  1.0560999570  3.1877549440
O   1.7903815710  4.5398867030  6.4147054290
O   0.8224794160  0.7547856140  1.5131886880
O   5.0751800880  4.9446963060  8.1644701600
9
scale = 1.15000
Li  3.9434690595  5.6372787365  6.6914427965
O   4.4304165380  1.5143688290  7.1464507845
O   1.0120076015  1.3351047705  5.4416638745
O   1.8324170150  4.2577237060  3.4116889460
O   5.2384554015  4.3823429615  5.1543645840
O   4.2970708640  1.1041045005  3.3326528960
O   1.8717625515  4.7462451895  6.7062829485
O   0.8598648440  0.7890940510  1.5819699920
O   5.3058700920  5.1694552290  8.5355824400
9
scale = 1.20000
Li  4.1149242360  5.8823778120  6.9823750920
O   4.6230433440  1.5802109520  7.4571660360
O   1.0560079320  1.3931528040  5.6782579560
O   1.9120873200  4.4428421280  3.5600232480
O   5.4662143320  4.5728796120  5.3784673920
O   4.4839000320  1.1521090440  3.4775508480
O   1.9531435320  4.9526036760  6.9978604680
O   0.8972502720  0.8234024880  1.6507512960
O   5.5365600960  5.3942141520  8.9066947200
9
scale = 1.25000
Li  4.2863794125  6.1274768875  7.2733073875
O   4.8156701500  1.6460530750  7.7678812875
O   1.1000082625  1.4512008375  5.9148520375
O   1.9917576250  4.6279605500  3.7083575500
O   5.6939732625  4.7634162625  5.6025702000
O   4.6707292000  1.2001135875  3.6224488000
O   2.0345245125  5.1589621625  7.2894379875
O   0.9346357000  0.8577109250  1.7195326000
O   5.7672501000  5.6189730750  9.2778070000
9
scale = 1.30000
Li  4.4578345890  6.3725759630  7.5642396830
O   5.0082969560  1.7118951980  8.0785965390
O   1.1440085930  1.5092488710  6.1514461190
O   2.0714279300  4.8130789720  3.8566918520
O   5.9217321930  4.9539529130  5.8266730080
O   4.8575583680  1.2481181310  3.7673467520
O   2.1159054930  5.3653206490  7.5810155070
O   0.9720211280  0.8920193620  1.7883139040
O   5.9979401040  5.8437319980  9.6489192800
9
scale = 1.35000
Li  4.6292897655  6.6176750385  7.8551719785
O   5.2009237620  1.7777373210  8.3893117905
O   1.1880089235  1.5672969045  6.3880402005
O   2.1510982350  4.9981973940  4.0050261540
O   6.1494911235  5.1444895635  6.0507758160
O   5.0443875360  1.2961226745  3.9122447040
O   2.1972864735  5.5716791355  7.8725930265
O   1.0094065560  0.9263277990  1.8570952080
O   6.2286301080  6.0684909210  10.0200315600
9
scale = 1.40000
Li  4.8007449420  6.8627741140  8.1461042740
O   5.3935505680  1.8435794440  8.7000270420
O   1.2320092540  1.6253449380  6.6246342820
O   2.2307685400  5.1833158160  4.1533604560
O   6.3772500540  5.3350262140  6.2748786240
O   5.2312167040  1.3441272180  4.0571426560
O   2.2786674540  5.7780376220  8.1641705460
O   1.0467919840  0.9606362360  1.9258765120
O   6.4593201120  6.2932498440  10.3911438400
9
scale = 1.45000
Li  4.9722001185  7.1078731895  8.4370365695
O   5.5861773740  1.9094215670  9.0107422935
O   1.2760095845  1.6833929715  6.8612283635
O   2.3104388450  5.3684342380  4.3016947580
O   6.6050089845  5.5255628645  6.4989814320
O   5.4180458720  1.3921317615  4.2020406080
O   2.3600484345  5.9843961085  8.4557480655
O   1.0841774120  0.9949446730  1.9946578160
O   6.6900101160  6.5180087670  10.7622561200
9
scale = 1.50000
Li  5.1436552950  7.3529722650  8.7279688650
O   5.7788041800  1.9752636900  9.3214575450
O   1.3200099150  1.7414410050  7.0978224450
O   2.3901091500  5.5535526600  4.4500290600
O   6.8327679150  5.7160995150  6.7230842400
O   5.6048750400  1.4401363050  4.3469385600
O   2.4414294150  6.1907545950  8.7473255850
O   1.1215628400  1.0292531100  2.0634391200
O   6.9207001200  6.7427676900  11.1333684000
9
scale = 1.55000
Li  5.3151104715  7.5980713405  9.0189011605
O   5.9714309860  2.0411058130  9.6321727965
O   1.3640102455  1.7994890385  7.3344165265
O   2.4697794550  5.7386710820  4.5983633620
O   7.0605268455  5.9066361655  6.9471870480
O   5.7917042080  1.4881408485  4.4918365120
O   2.5228103955  6.3971130815  9.0389031045
O   1.1589482680  1.0635615470  2.1322204240
O   7.1513901240  6.9675266130  11.5044806800
9
scale = 1.60000
Li  5.4865656480  7.8431704160  9.3098334560
O   6.1640577920  2.1069479360  9.9428880480
O   1.4080105760  1.8575370720  7.5710106080
O   2.5494497600  5.9237895040  4.7466976640
O   7.2882857760  6.0971728160  7.1712898560
O   5.9785333760  1.5361453920  4.6367344640
O   2.6041913760  6.6034715680  9.3304806240
O   1.1963336960  1.0978699840  2.2010017280
O   7.3820801280  7.1922855360  11.8755929600
9
scale = 1.65000
Li  5.6580208245  8.0882694915  9.6007657515
O   6.3566845980  2.1727900590  10.2536032995
O   1.4520109065  1.9155851055  7.8076046895
O   2.6291200650  6.1089079260  4.8950319660
O   7.5160447065  6.2877094665  7.3953926640
O   6.1653625440  1.5841499355  4.7816324160
O   2.6855723565  6.8098300545  9.6220581435
O   1.2337191240  1.1321784210  2.2697830320
O   7.6127701320  7.4170444590  12.2467052400
9
scale = 1.70000
Li  5.8294760010  8.3333685670  9.8916980470
O   6.5493114040  2.2386321820  10.5643185510
O   1.4960112370  1.9736331390  8.0441987710
O   2.7087903700  6.2940263480  5.0433662680
O   7.7438036370  6.4782461170  7.6194954720
O   6.3521917120  1.6321544790  4.9265303680
O   2.7669533370  7.0161885410  9.9136356630
O   1.2711045520  1.1664868580  2.3385643360
O   7.8434601360  7.6418033820  12.6178175200
9
scale = 1.75000
Li  6.0009311775  8.5784676425  10.1826303425
O   6.7419382100  2.3044743050  10.8750338025
O   1.5400115675  2.0316811725  8.2807928525
O   2.7884606750  6.4791447700  5.1917005700
O   7.9715625675  6.6687827675  7.8435982800
O   6.5390208800  1.6801590225  5.0714283200
O   2.8483343175  7.2225470275  10.2052131825
O   1.3084899800  1.2007952950  2.4073456400
O   8.0741501400  7.8665623050  12.9889298000
9
scale = 1.80000
Li  6.1723863540  8.8235667180  10.4735626380
O   6.9345650160  2.3703164280  11.1857490540
O   1.5840118980  2.0897292060  8.5173869340
O   2.8681309800  6.6642631920  5.3400348720
O   8.1993214980  6.8593194180  8.0677010880
O   6.7258500480  1.7281635660  5.2163262720
O   2.9297152980  7.4289055140  10.4967907020
O   1.3458754080  1.2351037320  2.4761269440
O   8.3048401440  8.0913212280  13.3600420800
9
scale = 1.85000
Li  6.3438415305  9.0686657935  10.7644949335
O   7.1271918220  2.4361585510  11.4964643055
O   1.6280122285  2.1477772395  8.7539810155
O   2.9478012850  6.8493816140  5.4883691740
O   8.4270804285  7.0498560685  8.2918038960
O   6.9126792160  1.7761681095  5.3612242240
O   3.0110962785  7.6352640005  10.7883682215
O   1.3832608360  1.2694121690  2.5449082480
O   8.5355301480  8.3160801510  13.7311543600
9
scale = 1.90000
Li  6.5152967070  9.3137648690  11.0554272290
O   7.3198186280  2.5020006740  11.8071795570
O   1.6720125590  2.2058252730  8.9905750970
O   3.0274715900  7.0345000360  5.6367034760
O   8.6548393590  7.2403927190  8.5159067040
O   7.0995083840  1.8241726530  5.5061221760
O   3.0924772590  7.8416224870  11.0799457410
O   1.4206462640  1.3037206060  2.6136895520
O   8.7662201520  8.5408390740  14.1022666400
9
scale = 1.95000
Li  6.6867518835  9.5588639445  11.3463595245
O   7.5124454340  2.5678427970  12.1178948085
O   1.7160128895  2.2638733065  9.2271691785
O   3.1071418950  7.2196184580  5.7850377780
O   8.8825982895  7.4309293695  8.7400095120
O   7.2863375520  1.8721771965  5.6510201280
O   3.1738582395  8.0479809735  11.3715232605
O   1.4580316920  1.3380290430  2.6824708560
O   8.9969101560  8.7655979970  14.4733789200
9
scale = 2.00000
Li  6.8582070600  9.8039630200  11.6372918200
O   7.7050722400  2.6336849200  12.4286100600
O   1.7600132200  2.3219213400  9.4637632600
O   3.1868122000  7.4047368800  5.9333720800
O   9.1103572200  7.6214660200  8.9641123200
O   7.4731667200  1.9201817400  5.7959180800
O   3.2552392200  8.2543394600  11.6631007800
O   1.4954171200  1.3723374800  2.7512521600
O   9.2276001600  8.9903569200  14.8444912000
9
scale = 2.05000
Li  7.0296622365  10.0490620955  11.9282241155
O   7.8976990460  2.6995270430  12.7393253115
O   1.8040135505  2.3799693735  9.7003573415
O   3.2664825050  7.5898553020  6.0817063820
O   9.3381161505  7.8120026705  9.1882151280
O   7.6599958880  1.9681862835  5.9408160320
O   3.3366202005  8.4606979465  11.9546782995
O   1.5328025480  1.4066459170  2.8200334640
O   9.4582901640  9.2151158430  15.2156034800
9
scale = 2.10000
Li  7.2011174130  10.2941611710  12.2191564110
O   8.0903258520  2.7653691660  13.0500405630
O   1.8480138810  2.4380174070  9.9369514230
O   3.3461528100  7.7749737240  6.2300406840
O   9.5658750810  8.0025393210  9.4123179360
O   7.8468250560  2.0161908270  6.0857139840
O   3.4180011810  8.6670564330  12.2462558190
O   1.5701879760  1.4409543540  2.8888147680
O   9.6889801680  9.4398747660  15.5867157600
9
scale = 2.15000
Li  7.3725725895  10.5392602465  12.5100887065
O   8.2829526580  2.8312112890  13.3607558145
O   1.8920142115  2.4960654405  10.1735455045
O   3.4258231150  7.9600921460  6.3783749860
O   9.7936340115  8.1930759715  9.6364207440
O   8.0336542240  2.0641953705  6.2306119360
O   3.4993821615  8.8734149195  12.5378333385
O   1.6075734040  1.4752627910  2.9575960720
O   9.9196701720  9.6646336890  15.9578280400
9
scale = 2.20000
Li  7.5440277660  10.7843593220  12.8010210020
O   8.4755794640  2.8970534120  13.6714710660
O   1.9360145420  2.5541134740  10.4101395860
O   3.5054934200  8.1452105680  6.5267092880
O   10.0213929420  8.3836126220  9.8605235520
O   8.2204833920  2.1121999140  6.3755098880
O   3.5807631420  9.0797734060  12.8294108580
O   1.6449588320  1.5095712280  3.0263773760
O   10.1503601760  9.8893926120  16.3289403200
9
scale = 2.25000
Li  7.7154829425  11.0294583975  13.0919532975
O   8.6682062700  2.9628955350  13.9821863175
O   1.9800148725  2.6121615075  10.6467336675
O   3.5851637250  8.3303289900  6.6750435900
O   10.2491518725  8.5741492725  10.0846263600
O   8.4073125600  2.1602044575  6.5204078400
O   3.6621441225  9.2861318925  13.1209883775
O   1.6823442600  1.5438796650  3.0951586800
O   10.3810501800  10.1141515350  16.7000526000
9
scale = 2.30000
Li  7.8869381190  11.2745574730  13.3828855930
O   8.8608330760  3.0287376580  14.2929015690
O   2.0240152030  2.6702095410  10.8833277490
O   3.6648340300  8.5154474120  6.8233778920
O   10.4769108030  8.7646859230  10.3087291680
O   8.5941417280  2.2082090010  6.6653057920
O   3.7435251030  9.4924903790  13.4125658970
O   1.7197296880  1.5781881020  3.1639399840
O   10.6117401840  10.3389104580  17.0711648800
9
scale = 2.35000
Li  8.0583932955  11.5196565485  13.6738178885
O   9.0534598820  3.0945797810  14.6036168205
O   2.0680155335  2.7282575745  11.1199218305
O   3.7445043350  8.7005658340  6.9717121940
O   10.7046697335  8.9552225735  10.5328319760
O   8.7809708960  2.2562135445  6.8102037440
O   3.8249060835  9.6988488655  13.7041434165
O   1.7571151160  1.6124965390  3.2327212880
O   10.8424301880  10.5636693810  17.4422771600
9
scale = 2.40000
Li  8.2298484720  11.7647556240  13.9647501840
O   9.2460866880  3.1604219040  14.9143320720
O   2.1120158640  2.7863056080  11.3565159120
O   3.8241746400  8.8856842560  7.1200464960
O   10.9324286640  9.1457592240  10.7569347840
O   8.9678000640  2.3042180880  6.9551016960
O   3.9062870640  9.9052073520  13.9957209360
O   1.7945005440  1.6468049760  3.3015025920
O   11.0731201920  10.7884283040  17.8133894400
9
scale = 2.45000
Li  8.4013036485  12.0098546995  14.2556824795
O   9.4387134940  3.2262640270  15.2250473235
O   2.1560161945  2.8443536415  11.5931099935
O   3.9038449450  9.0708026780  7.2683807980
O   11.1601875945  9.3362958745  10.9810375920
O   9.1546292320  2.3522226315  7.0999996480
O   3.9876680445  10.1115658385  14.2872984555
O   1.8318859720  1.6811134130  3.3702838960
O   11.3038101960  11.0131872270  18.1845017200
