9
scale = 0.75000
Li  0.6971444475  2.3205965100  3.4940077500
O   3.0081513600  1.0605853800  4.8948944775
O   0.7455839625  0.8104970850  3.6731513625
O   1.3290647325  2.8378114125  2.2102615425
O   3.5845677600  3.0633544050  3.4497163050
O   2.8660449975  0.7715397675  2.2123577550
O   1.4217950475  3.0028998225  4.7285934150
O   0.5749467075  0.5461156275  0.9861427950
O   3.6891719775  3.2504039925  5.9759461350
9
scale = 0.80000
Li  0.7436207440  2.4753029440  3.7269416000
O   3.2086947840  1.1312910720  5.2212207760
O   0.7952895600  0.8645302240  3.9180281200
O   1.4176690480  3.0269988400  2.3576123120
O   3.8235389440  3.2675780320  3.6796973920
O   3.0571146640  0.8229757520  2.3598482720
O   1.5165813840  3.2030931440  5.0438329760
O   0.6132764880  0.5825233360  1.0518856480
O   3.9351167760  3.4670975920  6.3743425440
9
scale = 0.85000
Li  0.7900970405  2.6300093780  3.9598754500
O   3.4092382080  1.2019967640  5.5475470745
O   0.8449951575  0.9185633630  4.1629048775
O   1.5062733635  3.2161862675  2.5049630815
O   4.0625101280  3.4718016590  3.9096784790
O   3.2481843305  0.8744117365  2.5073387890
O   1.6113677205  3.4032864655  5.3590725370
O   0.6516062685  0.6189310445  1.1176285010
O   4.1810615745  3.6837911915  6.7727389530
9
scale = 0.90000
Li  0.8365733370  2.7847158120  4.1928093000
O   3.6097816320  1.2727024560  5.8738733730
O   0.8947007550  0.9725965020  4.4077816350
O   1.5948776790  3.4053736950  2.6523138510
O   4.3014813120  3.6760252860  4.1396595660
O   3.4392539970  0.9258477210  2.6548293060
O   1.7061540570  3.6034797870  5.6743120980
O   0.6899360490  0.6553387530  1.1833713540
O   4.4270063730  3.9004847910  7.1711353620
9
scale = 0.95000
Li  0.8830496335  2.9394222460  4.4257431500
O   3.8103250560  1.3434081480  6.2001996715
O   0.9444063525  1.0266296410  4.6526583925
O   1.6834819945  3.5945611225  2.7996646205
O   4.5404524960  3.8802489130  4.3696406530
O   3.6303236635  0.9772837055  2.8023198230
O   1.8009403935  3.8036731085  5.9895516590
O   0.7282658295  0.6917464615  1.2491142070
O   4.6729511715  4.1171783905  7.5695317710
9
scale = 1.00000
Li  0.9295259300  3.0941286800  4.6586770000
O   4.0108684800  1.4141138400  6.5265259700
O   0.9941119500  1.0806627800  4.8975351500
O   1.7720863100  3.7837485500  2.9470153900
O   4.7794236800  4.0844725400  4.5996217400
O   3.8213933300  1.0287196900  2.9498103400
O   1.8957267300  4.0038664300  6.3047912200
O   0.7665956100  0.7281541700  1.3148570600
O   4.9188959700  4.3338719900  7.9679281800
9
scale = 1.05000
Li  0.9760022265  3.2488351140  4.8916108500
O   4.2114119040  1.4848195320  6.8528522685
O   1.0438175475  1.1346959190  5.1424119075
O   1.8606906255  3.9729359775  3.0943661595
O   5.0183948640  4.2886961670  4.8296028270
O   4.0124629965  1.0801556745  3.0973008570
O   1.9905130665  4.2040597515  6.6200307810
O   0.8049253905  0.7645618785  1.3805999130
O   5.1648407685  4.5505655895  8.3663245890
9
scale = 1.10000
Li  1.0224785230  3.4035415480  5.1245447000
O   4.4119553280  1.5555252240  7.1791785670
O   1.0935231450  1.1887290580  5.3872886650
O   1.9492949410  4.1621234050  3.2417169290
O   5.2573660480  4.4929197940  5.0595839140
O   4.2035326630  1.1315916590  3.2447913740
O   2.0852994030  4.4042530730  6.9352703420
O   0.8432551710  0.8009695870  1.4463427660
O   5.4107855670  4.7672591890  8.7647209980
9
scale = 1.15000
Li  1.0689548195  3.5582479820  5.3574785500
O   4.6124987520  1.6262309160  7.5055048655
O   1.1432287425  1.2427621970  5.6321654225
O   2.0378992565  4.3513108325  3.3890676985
O   5.4963372320  4.6971434210  5.2895650010
O   4.3946023295  1.1830276435  3.3922818910
O   2.1800857395  4.6044463945  7.2505099030
O   0.8815849515  0.8373772955  1.5120856190
O   5.6567303655  4.9839527885  9.1631174070
9
scale = 1.20000
Li  1.1154311160  3.7129544160  5.5904124000
O   4.8130421760  1.6969366080  7.8318311640
O   1.1929343400  1.2967953360  5.8770421800
O   2.1265035720  4.5404982600  3.5364184680
O   5.7353084160  4.9013670480  5.5195460880
O   4.5856719960  1.2344636280  3.5397724080
O   2.2748720760  4.8046397160  7.5657494640
O   0.9199147320  0.8737850040  1.5778284720
O   5.9026751640  5.2006463880  9.5615138160
9
scale = 1.25000
Li  1.1619074125  3.8676608500  5.8233462500
O   5.0135856000  1.7676423000  8.1581574625
O   1.2426399375  1.3508284750  6.1219189375
O   2.2151078875  4.7296856875  3.6837692375
O   5.9742796000  5.1055906750  5.7495271750
O   4.7767416625  1.2858996125  3.6872629250
O   2.3696584125  5.0048330375  7.8809890250
O   0.9582445125  0.9101927125  1.6435713250
O   6.1486199625  5.4173399875  9.9599102250
9
scale = 1.30000
Li  1.2083837090  4.0223672840  6.0562801000
O   5.2141290240  1.8383479920  8.4844837610
O   1.2923455350  1.4048616140  6.3667956950
O   2.3037122030  4.9188731150  3.8311200070
O   6.2132507840  5.3098143020  5.9795082620
O   4.9678113290  1.3373355970  3.8347534420
O   2.4644447490  5.2050263590  8.1962285860
O   0.9965742930  0.9466004210  1.7093141780
O   6.3945647610  5.6340335870  10.3583066340
9
scale = 1.35000
Li  1.2548600055  4.1770737180  6.2892139500
O   5.4146724480  1.9090536840  8.8108100595
O   1.3420511325  1.4588947530  6.6116724525
O   2.3923165185  5.1080605425  3.9784707765
O   6.4522219680  5.5140379290  6.2094893490
O   5.1588809955  1.3887715815  3.9822439590
O   2.5592310855  5.4052196805  8.5114681470
O   1.0349040735  0.9830081295  1.7750570310
O   6.6405095595  5.8507271865  10.7567030430
9
scale = 1.40000
Li  1.3013363020  4.3317801520  6.5221478000
O   5.6152158720  1.9797593760  9.1371363580
O   1.3917567300  1.5129278920  6.8565492100
O   2.4809208340  5.2972479700  4.1258215460
O   6.6911931520  5.7182615560  6.4394704360
O   5.3499506620  1.4402075660  4.1297344760
O   2.6540174220  5.6054130020  8.8267077080
O   1.0732338540  1.0194158380  1.8407998840
O   6.8864543580  6.0674207860  11.1550994520
9
scale = 1.45000
Li  1.3478125985  4.4864865860  6.7550816500
O   5.8157592960  2.0504650680  9.4634626565
O   1.4414623275  1.5669610310  7.1014259675
O   2.5695251495  5.4864353975  4.2731723155
O   6.9301643360  5.9224851830  6.6694515230
O   5.5410203285  1.4916435505  4.2772249930
O   2.7488037585  5.8056063235  9.1419472690
O   1.1115636345  1.0558235465  1.9065427370
O   7.1323991565  6.2841143855  11.5534958610
9
scale = 1.50000
Li  1.3942888950  4.6411930200  6.9880155000
O   6.0163027200  2.1211707600  9.7897889550
O   1.4911679250  1.6209941700  7.3463027250
O   2.6581294650  5.6756228250  4.4205230850
O   7.1691355200  6.1267088100  6.8994326100
O   5.7320899950  1.5430795350  4.4247155100
O   2.8435900950  6.0057996450  9.4571868300
O   1.1498934150  1.0922312550  1.9722855900
O   7.3783439550  6.5008079850  11.9518922700
9
scale = 1.55000
Li  1.4407651915  4.7958994540  7.2209493500
O   6.2168461440  2.1918764520  10.1161152535
O   1.5408735225  1.6750273090  7.5911794825
O   2.7467337805  5.8648102525  4.5678738545
O   7.4081067040  6.3309324370  7.1294136970
O   5.9231596615  1.5945155195  4.5722060270
O   2.9383764315  6.2059929665  9.7724263910
O   1.1882231955  1.1286389635  2.0380284430
O   7.6242887535  6.7175015845  12.3502886790
9
scale = 1.60000
Li  1.4872414880  4.9506058880  7.4538832000
O   6.4173895680  2.2625821440  10.4424415520
O   1.5905791200  1.7290604480  7.8360562400
O   2.8353380960  6.0539976800  4.7152246240
O   7.6470778880  6.5351560640  7.3593947840
O   6.1142293280  1.6459515040  4.7196965440
O   3.0331627680  6.4061862880  10.0876659520
O   1.2265529760  1.1650466720  2.1037712960
O   7.8702335520  6.9341951840  12.7486850880
9
scale = 1.65000
Li  1.5337177845  5.1053123220  7.6868170500
O   6.6179329920  2.3332878360  10.7687678505
O   1.6402847175  1.7830935870  8.0809329975
O   2.9239424115  6.2431851075  4.8625753935
O   7.8860490720  6.7393796910  7.5893758710
O   6.3052989945  1.6973874885  4.8671870610
O   3.1279491045  6.6063796095  10.4029055130
O   1.2648827565  1.2014543805  2.1695141490
O   8.1161783505  7.1508887835  13.1470814970
9
scale = 1.70000
Li  1.5801940810  5.2600187560  7.9197509000
O   6.8184764160  2.4039935280  11.0950941490
O   1.6899903150  1.8371267260  8.3258097550
O   3.0125467270  6.4323725350  5.0099261630
O   8.1250202560  6.9436033180  7.8193569580
O   6.4963686610  1.7488234730  5.0146775780
O   3.2227354410  6.8065729310  10.7181450740
O   1.3032125370  1.2378620890  2.2352570020
O   8.3621231490  7.3675823830  13.5454779060
9
scale = 1.75000
Li  1.6266703775  5.4147251900  8.1526847500
O   7.0190198400  2.4746992200  11.4214204475
O   1.7396959125  1.8911598650  8.5706865125
O   3.1011510425  6.6215599625  5.1572769325
O   8.3639914400  7.1478269450  8.0493380450
O   6.6874383275  1.8002594575  5.1621680950
O   3.3175217775  7.0067662525  11.0333846350
O   1.3415423175  1.2742697975  2.3009998550
O   8.6080679475  7.5842759825  13.9438743150
9
scale = 1.80000
Li  1.6731466740  5.5694316240  8.3856186000
O   7.2195632640  2.5454049120  11.7477467460
O   1.7894015100  1.9451930040  8.8155632700
O   3.1897553580  6.8107473900  5.3046277020
O   8.6029626240  7.3520505720  8.2793191320
O   6.8785079940  1.8516954420  5.3096586120
O   3.4123081140  7.2069595740  11.3486241960
O   1.3798720980  1.3106775060  2.3667427080
O   8.8540127460  7.8009695820  14.3422707240
9
scale = 1.85000
Li  1.7196229705  5.7241380580  8.6185524500
O   7.4201066880  2.6161106040  12.0740730445
O   1.8391071075  1.9992261430  9.0604400275
O   3.2783596735  6.9999348175  5.4519784715
O   8.8419338080  7.5562741990  8.5093002190
O   7.0695776605  1.9031314265  5.4571491290
O   3.5070944505  7.4071528955  11.6638637570
O   1.4182018785  1.3470852145  2.4324855610
O   9.0999575445  8.0176631815  14.7406671330
9
scale = 1.90000
Li  1.7660992670  5.8788444920  8.8514863000
O   7.6206501120  2.6868162960  12.4003993430
O   1.8888127050  2.0532592820  9.3053167850
O   3.3669639890  7.1891222450  5.5993292410
O   9.0809049920  7.7604978260  8.7392813060
O   7.2606473270  1.9545674110  5.6046396460
O   3.6018807870  7.6073462170  11.9791033180
O   1.4565316590  1.3834929230  2.4982284140
O   9.3459023430  8.2343567810  15.1390635420
9
scale = 1.95000
Li  1.8125755635  6.0335509260  9.0844201500
O   7.8211935360  2.7575219880  12.7267256415
O   1.9385183025  2.1072924210  9.5501935425
O   3.4555683045  7.3783096725  5.7466800105
O   9.3198761760  7.9647214530  8.9692623930
O   7.4517169935  2.0060033955  5.7521301630
O   3.6966671235  7.8075395385  12.2943428790
O   1.4948614395  1.4199006315  2.5639712670
O   9.5918471415  8.4510503805  15.5374599510
9
scale = 2.00000
Li  1.8590518600  6.1882573600  9.3173540000
O   8.0217369600  2.8282276800  13.0530519400
O   1.9882239000  2.1613255600  9.7950703000
O   3.5441726200  7.5674971000  5.8940307800
O   9.5588473600  8.1689450800  9.1992434800
O   7.6427866600  2.0574393800  5.8996206800
O   3.7914534600  8.0077328600  12.6095824400
O   1.5331912200  1.4563083400  2.6297141200
O   9.8377919400  8.6677439800  15.9358563600
9
scale = 2.05000
Li  1.9055281565  6.3429637940  9.5502878500
O   8.2222803840  2.8989333720  13.3793782385
O   2.0379294975  2.2153586990  10.0399470575
O   3.6327769355  7.7566845275  6.0413815495
O   9.7978185440  8.3731687070  9.4292245670
O   7.8338563265  2.1088753645  6.0471111970
O   3.8862397965  8.2079261815  12.9248220010
O   1.5715210005  1.4927160485  2.6954569730
O   10.0837367385  8.8844375795  16.3342527690
9
scale = 2.10000
Li  1.9520044530  6.4976702280  9.7832217000
O   8.4228238080  2.9696390640  13.7057045370
O   2.0876350950  2.2693918380  10.2848238150
O   3.7213812510  7.9458719550  6.1887323190
O   10.0367897280  8.5773923340  9.6592056540
O   8.0249259930  2.1603113490  6.1946017140
O   3.9810261330  8.4081195030  13.2400615620
O   1.6098507810  1.5291237570  2.7611998260
O   10.3296815370  9.1011311790  16.7326491780
9
scale = 2.15000
Li  1.9984807495  6.6523766620  10.0161555500
O   8.6233672320  3.0403447560  14.0320308355
O   2.1373406925  2.3234249770  10.5297005725
O   3.8099855665  8.1350593825  6.3360830885
O   10.2757609120  8.7816159610  9.8891867410
O   8.2159956595  2.2117473335  6.3420922310
O   4.0758124695  8.6083128245  13.5553011230
O   1.6481805615  1.5655314655  2.8269426790
O   10.5756263355  9.3178247785  17.1310455870
9
scale = 2.20000
Li  2.0449570460  6.8070830960  10.2490894000
O   8.8239106560  3.1110504480  14.3583571340
O   2.1870462900  2.3774581160  10.7745773300
O   3.8985898820  8.3242468100  6.4834338580
O   10.5147320960  8.9858395880  10.1191678280
O   8.4070653260  2.2631833180  6.4895827480
O   4.1705988060  8.8085061460  13.8705406840
O   1.6865103420  1.6019391740  2.8926855320
O   10.8215711340  9.5345183780  17.5294419960
9
scale = 2.25000
Li  2.0914333425  6.9617895300  10.4820232500
O   9.0244540800  3.1817561400  14.6846834325
O   2.2367518875  2.4314912550  11.0194540875
O   3.9871941975  8.5134342375  6.6307846275
O   10.7537032800  9.1900632150  10.3491489150
O   8.5981349925  2.3146193025  6.6370732650
O   4.2653851425  9.0086994675  14.1857802450
O   1.7248401225  1.6383468825  2.9584283850
O   11.0675159325  9.7512119775  17.9278384050
9
scale = 2.30000
Li  2.1379096390  7.1164959640  10.7149571000
O   9.2249975040  3.2524618320  15.0110097310
O   2.2864574850  2.4855243940  11.2643308450
O   4.0757985130  8.7026216650  6.7781353970
O   10.9926744640  9.3942868420  10.5791300020
O   8.7892046590  2.3660552870  6.7845637820
O   4.3601714790  9.2088927890  14.5010198060
O   1.7631699030  1.6747545910  3.0241712380
O   11.3134607310  9.9679055770  18.3262348140
9
scale = 2.35000
Li  2.1843859355  7.2712023980  10.9478909500
O   9.4255409280  3.3231675240  15.3373360295
O   2.3361630825  2.5395575330  11.5092076025
O   4.1644028285  8.8918090925  6.9254861665
O   11.2316456480  9.5985104690  10.8091110890
O   8.9802743255  2.4174912715  6.9320542990
O   4.4549578155  9.4090861105  14.8162593670
O   1.8014996835  1.7111622995  3.0899140910
O   11.5594055295  10.1845991765  18.7246312230
9
scale = 2.40000
Li  2.2308622320  7.4259088320  11.1808248000
O   9.6260843520  3.3938732160  15.6636623280
O   2.3858686800  2.5935906720  11.7540843600
O   4.2530071440  9.0809965200  7.0728369360
O   11.4706168320  9.8027340960  11.0390921760
O   9.1713439920  2.4689272560  7.0795448160
O   4.5497441520  9.6092794320  15.1314989280
O   1.8398294640  1.7475700080  3.1556569440
O   11.8053503280  10.4012927760  19.1230276320
9
scale = 2.45000
Li  2.2773385285  7.5806152660  11.4137586500
O   9.8266277760  3.4645789080  15.9899886265
O   2.4355742775  2.6476238110  11.9989611175
O   4.3416114595  9.2701839475  7.2201877055
O   11.7095880160  10.0069577230  11.2690732630
O   9.3624136585  2.5203632405  7.2270353330
O   4.6445304885  9.8094727535  15.4467384890
O   1.8781592445  1.7839777165  3.2213997970
O   12.0512951265  10.6179863755  19.5214240410
