9
scale = 0.75000
Li  2.9088393825  2.5874865150  5.5769194425
O   3.3269373600  1.1070575700  5.6194682625
O   0.9563875425  0.7040066250  3.3411737175
O   1.6665427275  2.0954070525  2.3256946125
O   4.0655640150  2.5553703900  4.5627714450
O   3.2241575400  0.9110749275  3.5018593050
O   1.7759256525  2.3124787800  4.4087652450
O   0.8198891175  0.4972209900  1.2541046325
O   4.1803199250  2.7349118775  6.6679782450
9
scale = 0.80000
Li  3.1027620080  2.7599856160  5.9487140720
O   3.5487331840  1.1808614080  5.9940994800
O   1.0201467120  0.7509404000  3.5639186320
O   1.7776455760  2.2351008560  2.4807409200
O   4.3366016160  2.7257284160  4.8669562080
O   3.4391013760  0.9718132560  3.7353165920
O   1.8943206960  2.4666440320  4.7026829280
O   0.8745483920  0.5303690560  1.3377116080
O   4.4590079200  2.9172393360  7.1125101280
9
scale = 0.85000
Li  3.2966846335  2.9324847170  6.3205087015
O   3.7705290080  1.2546652460  6.3687306975
O   1.0839058815  0.7978741750  3.7866635465
O   1.8887484245  2.3747946595  2.6357872275
O   4.6076392170  2.8960864420  5.1711409710
O   3.6540452120  1.0325515845  3.9687738790
O   2.0127157395  2.6208092840  4.9966006110
O   0.9292076665  0.5635171220  1.4213185835
O   4.7376959150  3.0995667945  7.5570420110
9
scale = 0.90000
Li  3.4906072590  3.1049838180  6.6923033310
O   3.9923248320  1.3284690840  6.7433619150
O   1.1476650510  0.8448079500  4.0094084610
O   1.9998512730  2.5144884630  2.7908335350
O   4.8786768180  3.0664444680  5.4753257340
O   3.8689890480  1.0932899130  4.2022311660
O   2.1311107830  2.7749745360  5.2905182940
O   0.9838669410  0.5966651880  1.5049255590
O   5.0163839100  3.2818942530  8.0015738940
9
scale = 0.95000
Li  3.6845298845  3.2774829190  7.0640979605
O   4.2141206560  1.4022729220  7.1179931325
O   1.2114242205  0.8917417250  4.2321533755
O   2.1109541215  2.6541822665  2.9458798425
O   5.1497144190  3.2368024940  5.7795104970
O   4.0839328840  1.1540282415  4.4356884530
O   2.2495058265  2.9291397880  5.5844359770
O   1.0385262155  0.6298132540  1.5885325345
O   5.2950719050  3.4642217115  8.4461057770
9
scale = 1.00000
Li  3.8784525100  3.4499820200  7.4358925900
O   4.4359164800  1.4760767600  7.4926243500
O   1.2751833900  0.9386755000  4.4548982900
O   2.2220569700  2.7938760700  3.1009261500
O   5.4207520200  3.4071605200  6.0836952600
O   4.2988767200  1.2147665700  4.6691457400
O   2.3679008700  3.0833050400  5.8783536600
O   1.0931854900  0.6629613200  1.6721395100
O   5.5737599000  3.6465491700  8.8906376600
9
scale = 1.05000
Li  4.0723751355  3.6224811210  7.8076872195
O   4.6577123040  1.5498805980  7.8672555675
O   1.3389425595  0.9856092750  4.6776432045
O   2.3331598185  2.9335698735  3.2559724575
O   5.6917896210  3.5775185460  6.3878800230
O   4.5138205560  1.2755048985  4.9026030270
O   2.4862959135  3.2374702920  6.1722713430
O   1.1478447645  0.6961093860  1.7557464855
O   5.8524478950  3.8288766285  9.3351695430
9
scale = 1.10000
Li  4.2662977610  3.7949802220  8.1794818490
O   4.8795081280  1.6236844360  8.2418867850
O   1.4027017290  1.0325430500  4.9003881190
O   2.4442626670  3.0732636770  3.4110187650
O   5.9628272220  3.7478765720  6.6920647860
O   4.7287643920  1.3362432270  5.1360603140
O   2.6046909570  3.3916355440  6.4661890260
O   1.2025040390  0.7292574520  1.8393534610
O   6.1311358900  4.0112040870  9.7797014260
9
scale = 1.15000
Li  4.4602203865  3.9674793230  8.5512764785
O   5.1013039520  1.6974882740  8.6165180025
O   1.4664608985  1.0794768250  5.1231330335
O   2.5553655155  3.2129574805  3.5660650725
O   6.2338648230  3.9182345980  6.9962495490
O   4.9437082280  1.3969815555  5.3695176010
O   2.7230860005  3.5458007960  6.7601067090
O   1.2571633135  0.7624055180  1.9229604365
O   6.4098238850  4.1935315455  10.2242333090
9
scale = 1.20000
Li  4.6541430120  4.1399784240  8.9230711080
O   5.3230997760  1.7712921120  8.9911492200
O   1.5302200680  1.1264106000  5.3458779480
O   2.6664683640  3.3526512840  3.7211113800
O   6.5049024240  4.0885926240  7.3004343120
O   5.1586520640  1.4577198840  5.6029748880
O   2.8414810440  3.6999660480  7.0540243920
O   1.3118225880  0.7955535840  2.0065674120
O   6.6885118800  4.3758590040  10.6687651920
9
scale = 1.25000
Li  4.8480656375  4.3124775250  9.2948657375
O   5.5448956000  1.8450959500  9.3657804375
O   1.5939792375  1.1733443750  5.5686228625
O   2.7775712125  3.4923450875  3.8761576875
O   6.7759400250  4.2589506500  7.6046190750
O   5.3735959000  1.5184582125  5.8364321750
O   2.9598760875  3.8541313000  7.3479420750
O   1.3664818625  0.8287016500  2.0901743875
O   6.9671998750  4.5581864625  11.1132970750
9
scale = 1.30000
Li  5.0419882630  4.4849766260  9.6666603670
O   5.7666914240  1.9188997880  9.7404116550
O   1.6577384070  1.2202781500  5.7913677770
O   2.8886740610  3.6320388910  4.0312039950
O   7.0469776260  4.4293086760  7.9088038380
O   5.5885397360  1.5791965410  6.0698894620
O   3.0782711310  4.0082965520  7.6418597580
O   1.4211411370  0.8618497160  2.1737813630
O   7.2458878700  4.7405139210  11.5578289580
9
scale = 1.35000
Li  5.2359108885  4.6574757270  10.0384549965
O   5.9884872480  1.9927036260  10.1150428725
O   1.7214975765  1.2672119250  6.0141126915
O   2.9997769095  3.7717326945  4.1862503025
O   7.3180152270  4.5996667020  8.2129886010
O   5.8034835720  1.6399348695  6.3033467490
O   3.1966661745  4.1624618040  7.9357774410
O   1.4758004115  0.8949977820  2.2573883385
O   7.5245758650  4.9228413795  12.0023608410
9
scale = 1.40000
Li  5.4298335140  4.8299748280  10.4102496260
O   6.2102830720  2.0665074640  10.4896740900
O   1.7852567460  1.3141457000  6.2368576060
O   3.1108797580  3.9114264980  4.3412966100
O   7.5890528280  4.7700247280  8.5171733640
O   6.0184274080  1.7006731980  6.5368040360
O   3.3150612180  4.3166270560  8.2296951240
O   1.5304596860  0.9281458480  2.3409953140
O   7.8032638600  5.1051688380  12.4468927240
9
scale = 1.45000
Li  5.6237561395  5.0024739290  10.7820442555
O   6.4320788960  2.1403113020  10.8643053075
O   1.8490159155  1.3610794750  6.4596025205
O   3.2219826065  4.0511203015  4.4963429175
O   7.8600904290  4.9403827540  8.8213581270
O   6.2333712440  1.7614115265  6.7702613230
O   3.4334562615  4.4707923080  8.5236128070
O   1.5851189605  0.9612939140  2.4246022895
O   8.0819518550  5.2874962965  12.8914246070
9
scale = 1.50000
Li  5.8176787650  5.1749730300  11.1538388850
O   6.6538747200  2.2141151400  11.2389365250
O   1.9127750850  1.4080132500  6.6823474350
O   3.3330854550  4.1908141050  4.6513892250
O   8.1311280300  5.1107407800  9.1255428900
O   6.4483150800  1.8221498550  7.0037186100
O   3.5518513050  4.6249575600  8.8175304900
O   1.6397782350  0.9944419800  2.5082092650
O   8.3606398500  5.4698237550  13.3359564900
9
scale = 1.55000
Li  6.0116013905  5.3474721310  11.5256335145
O   6.8756705440  2.2879189780  11.6135677425
O   1.9765342545  1.4549470250  6.9050923495
O   3.4441883035  4.3305079085  4.8064355325
O   8.4021656310  5.2810988060  9.4297276530
O   6.6632589160  1.8828881835  7.2371758970
O   3.6702463485  4.7791228120  9.1114481730
O   1.6944375095  1.0275900460  2.5918162405
O   8.6393278450  5.6521512135  13.7804883730
9
scale = 1.60000
Li  6.2055240160  5.5199712320  11.8974281440
O   7.0974663680  2.3617228160  11.9881989600
O   2.0402934240  1.5018808000  7.1278372640
O   3.5552911520  4.4702017120  4.9614818400
O   8.6732032320  5.4514568320  9.7339124160
O   6.8782027520  1.9436265120  7.4706331840
O   3.7886413920  4.9332880640  9.4053658560
O   1.7490967840  1.0607381120  2.6754232160
O   8.9180158400  5.8344786720  14.2250202560
9
scale = 1.65000
Li  6.3994466415  5.6924703330  12.2692227735
O   7.3192621920  2.4355266540  12.3628301775
O   2.1040525935  1.5488145750  7.3505821785
O   3.6663940005  4.6098955155  5.1165281475
O   8.9442408330  5.6218148580  10.0380971790
O   7.0931465880  2.0043648405  7.7040904710
O   3.9070364355  5.0874533160  9.6992835390
O   1.8037560585  1.0938861780  2.7590301915
O   9.1967038350  6.0168061305  14.6695521390
9
scale = 1.70000
Li  6.5933692670  5.8649694340  12.6410174030
O   7.5410580160  2.5093304920  12.7374613950
O   2.1678117630  1.5957483500  7.5733270930
O   3.7774968490  4.7495893190  5.2715744550
O   9.2152784340  5.7921728840  10.3422819420
O   7.3080904240  2.0651031690  7.9375477580
O   4.0254314790  5.2416185680  9.9932012220
O   1.8584153330  1.1270342440  2.8426371670
O   9.4753918300  6.1991335890  15.1140840220
9
scale = 1.75000
Li  6.7872918925  6.0374685350  13.0128120325
O   7.7628538400  2.5831343300  13.1120926125
O   2.2315709325  1.6426821250  7.7960720075
O   3.8885996975  4.8892831225  5.4266207625
O   9.4863160350  5.9625309100  10.6464667050
O   7.5230342600  2.1258414975  8.1710050450
O   4.1438265225  5.3957838200  10.2871189050
O   1.9130746075  1.1601823100  2.9262441425
O   9.7540798250  6.3814610475  15.5586159050
9
scale = 1.80000
Li  6.9812145180  6.2099676360  13.3846066620
O   7.9846496640  2.6569381680  13.4867238300
O   2.2953301020  1.6896159000  8.0188169220
O   3.9997025460  5.0289769260  5.5816670700
O   9.7573536360  6.1328889360  10.9506514680
O   7.7379780960  2.1865798260  8.4044623320
O   4.2622215660  5.5499490720  10.5810365880
O   1.9677338820  1.1933303760  3.0098511180
O   10.0327678200  6.5637885060  16.0031477880
9
scale = 1.85000
Li  7.1751371435  6.3824667370  13.7564012915
O   8.2064454880  2.7307420060  13.8613550475
O   2.3590892715  1.7365496750  8.2415618365
O   4.1108053945  5.1686707295  5.7367133775
O   10.0283912370  6.3032469620  11.2548362310
O   7.9529219320  2.2473181545  8.6379196190
O   4.3806166095  5.7041143240  10.8749542710
O   2.0223931565  1.2264784420  3.0934580935
O   10.3114558150  6.7461159645  16.4476796710
9
scale = 1.90000
Li  7.3690597690  6.5549658380  14.1281959210
O   8.4282413120  2.8045458440  14.2359862650
O   2.4228484410  1.7834834500  8.4643067510
O   4.2219082430  5.3083645330  5.8917596850
O   10.2994288380  6.4736049880  11.5590209940
O   8.1678657680  2.3080564830  8.8713769060
O   4.4990116530  5.8582795760  11.1688719540
O   2.0770524310  1.2596265080  3.1770650690
O   10.5901438100  6.9284434230  16.8922115540
9
scale = 1.95000
Li  7.5629823945  6.7274649390  14.4999905505
O   8.6500371360  2.8783496820  14.6106174825
O   2.4866076105  1.8304172250  8.6870516655
O   4.3330110915  5.4480583365  6.0468059925
O   10.5704664390  6.6439630140  11.8632057570
O   8.3828096040  2.3687948115  9.1048341930
O   4.6174066965  6.0124448280  11.4627896370
O   2.1317117055  1.2927745740  3.2606720445
O   10.8688318050  7.1107708815  17.3367434370
9
scale = 2.00000
Li  7.7569050200  6.8999640400  14.8717851800
O   8.8718329600  2.9521535200  14.9852487000
O   2.5503667800  1.8773510000  8.9097965800
O   4.4441139400  5.5877521400  6.2018523000
O   10.8415040400  6.8143210400  12.1673905200
O   8.5977534400  2.4295331400  9.3382914800
O   4.7358017400  6.1666100800  11.7567073200
O   2.1863709800  1.3259226400  3.3442790200
O   11.1475198000  7.2930983400  17.7812753200
9
scale = 2.05000
Li  7.9508276455  7.0724631410  15.2435798095
O   9.0936287840  3.0259573580  15.3598799175
O   2.6141259495  1.9242847750  9.1325414945
O   4.5552167885  5.7274459435  6.3568986075
O   11.1125416410  6.9846790660  12.4715752830
O   8.8126972760  2.4902714685  9.5717487670
O   4.8541967835  6.3207753320  12.0506250030
O   2.2410302545  1.3590707060  3.4278859955
O   11.4262077950  7.4754257985  18.2258072030
9
scale = 2.10000
Li  8.1447502710  7.2449622420  15.6153744390
O   9.3154246080  3.0997611960  15.7345111350
O   2.6778851190  1.9712185500  9.3552864090
O   4.6663196370  5.8671397470  6.5119449150
O   11.3835792420  7.1550370920  12.7757600460
O   9.0276411120  2.5510097970  9.8052060540
O   4.9725918270  6.4749405840  12.3445426860
O   2.2956895290  1.3922187720  3.5114929710
O   11.7048957900  7.6577532570  18.6703390860
9
scale = 2.15000
Li  8.3386728965  7.4174613430  15.9871690685
O   9.5372204320  3.1735650340  16.1091423525
O   2.7416442885  2.0181523250  9.5780313235
O   4.7774224855  6.0068335505  6.6669912225
O   11.6546168430  7.3253951180  13.0799448090
O   9.2425849480  2.6117481255  10.0386633410
O   5.0909868705  6.6291058360  12.6384603690
O   2.3503488035  1.4253668380  3.5950999465
O   11.9835837850  7.8400807155  19.1148709690
9
scale = 2.20000
Li  8.5325955220  7.5899604440  16.3589636980
O   9.7590162560  3.2473688720  16.4837735700
O   2.8054034580  2.0650861000  9.8007762380
O   4.8885253340  6.1465273540  6.8220375300
O   11.9256544440  7.4957531440  13.3841295720
O   9.4575287840  2.6724864540  10.2721206280
O   5.2093819140  6.7832710880  12.9323780520
O   2.4050080780  1.4585149040  3.6787069220
O   12.2622717800  8.0224081740  19.5594028520
9
scale = 2.25000
Li  8.7265181475  7.7624595450  16.7307583275
O   9.9808120800  3.3211727100  16.8584047875
O   2.8691626275  2.1120198750  10.0235211525
O   4.9996281825  6.2862211575  6.9770838375
O   12.1966920450  7.6661111700  13.6883143350
O   9.6724726200  2.7332247825  10.5055779150
O   5.3277769575  6.9374363400  13.2262957350
O   2.4596673525  1.4916629700  3.7623138975
O   12.5409597750  8.2047356325  20.0039347350
9
scale = 2.30000
Li  8.9204407730  7.9349586460  17.1025529570
O   10.2026079040  3.3949765480  17.2330360050
O   2.9329217970  2.1589536500  10.2462660670
O   5.1107310310  6.4259149610  7.1321301450
O   12.4677296460  7.8364691960  13.9924990980
O   9.8874164560  2.7939631110  10.7390352020
O   5.4461720010  7.0916015920  13.5202134180
O   2.5143266270  1.5248110360  3.8459208730
O   12.8196477700  8.3870630910  20.4484666180
9
scale = 2.35000
Li  9.1143633985  8.1074577470  17.4743475865
O   10.4244037280  3.4687803860  17.6076672225
O   2.9966809665  2.2058874250  10.4690109815
O   5.2218338795  6.5656087645  7.2871764525
O   12.7387672470  8.0068272220  14.2966838610
O   10.1023602920  2.8547014395  10.9724924890
O   5.5645670445  7.2457668440  13.8141311010
O   2.5689859015  1.5579591020  3.9295278485
O   13.0983357650  8.5693905495  20.8929985010
9
scale = 2.40000
Li  9.3082860240  8.2799568480  17.8461422160
O   10.6461995520  3.5425842240  17.9822984400
O   3.0604401360  2.2528212000  10.6917558960
O   5.3329367280  6.7053025680  7.4422227600
O   13.0098048480  8.1771852480  14.6008686240
O   10.3173041280  2.9154397680  11.2059497760
O   5.6829620880  7.3999320960  14.1080487840
O   2.6236451760  1.5911071680  4.0131348240
O   13.3770237600  8.7517180080  21.3375303840
9
scale = 2.45000
Li  9.5022086495  8.4524559490  18.2179368455
O   10.8679953760  3.6163880620  18.3569296575
O   3.1241993055  2.2997549750  10.9145008105
O   5.4440395765  6.8449963715  7.5972690675
O   13.2808424490  8.3475432740  14.9050533870
O   10.5322479640  2.9761780965  11.4394070630
O   5.8013571315  7.5540973480  14.4019664670
O   2.6783044505  1.6242552340  4.0967417995
O   13.6557117550  8.9340454665  21.7820622670
