4
scale = 0.75000
Li  0.0000000000  0.0000000000  0.0000000000
Pb  2.3038089225  0.8052811800  -0.7879828125
Pb  0.3459961050  2.4158435475  -0.7879828125
Pb  1.3249025175  1.6105623675  -3.0173761650
4
scale = 0.80000
Li  0.0000000000  0.0000000000  0.0000000000
Pb  2.4573961840  0.8589665920  -0.8405150000
Pb  0.3690625120  2.5768997840  -0.8405150000
Pb  1.4132293520  1.7179331920  -3.2185345760
4
scale = 0.85000
Li  0.0000000000  0.0000000000  0.0000000000
Pb  2.6109834455  0.9126520040  -0.8930471875
Pb  0.3921289190  2.7379560205  -0.8930471875
Pb  1.5015561865  1.8253040165  -3.4196929870
4
scale = 0.90000
Li  0.0000000000  0.0000000000  0.0000000000
Pb  2.7645707070  0.9663374160  -0.9455793750
Pb  0.4151953260  2.8990122570  -0.9455793750
Pb  1.5898830210  1.9326748410  -3.6208513980
4
scale = 0.95000
Li  0.0000000000  0.0000000000  0.0000000000
Pb  2.9181579685  1.0200228280  -0.9981115625
Pb  0.4382617330  3.0600684935  -0.9981115625
Pb  1.6782098555  2.0400456655  -3.8220098090
4
scale = 1.00000
Li  0.0000000000  0.0000000000  0.0000000000
Pb  3.0717452300  1.0737082400  -1.0506437500
Pb  0.4613281400  3.2211247300  -1.0506437500
Pb  1.7665366900  2.1474164900  -4.0231682200
4
scale = 1.05000
Li  0.0000000000  0.0000000000  0.0000000000
Pb  3.2253324915  1.1273936520  -1.1031759375
Pb  0.4843945470  3.3821809665  -1.1031759375
Pb  1.8548635245  2.2547873145  -4.2243266310
4
scale = 1.10000
Li  0.0000000000  0.0000000000  0.0000000000
Pb  3.3789197530  1.1810790640  -1.1557081250
Pb  0.5074609540  3.5432372030  -1.1557081250
Pb  1.9431903590  2.3621581390  -4.4254850420
4
scale = 1.15000
Li  0.0000000000  0.0000000000  0.0000000000
Pb  3.5325070145  1.2347644760  -1.2082403125
Pb  0.5305273610  3.7042934395  -1.2082403125
Pb  2.0315171935  2.4695289635  -4.6266434530
4
scale = 1.20000
Li  0.0000000000  0.0000000000  0.0000000000
Pb  3.6860942760  1.2884498880  -1.2607725000
Pb  0.5535937680  3.8653496760  -1.2607725000
Pb  2.1198440280  2.5768997880  -4.8278018640
4
scale = 1.25000
Li  0.0000000000  0.0000000000  0.0000000000
Pb  3.8396815375  1.3421353000  -1.3133046875
Pb  0.5766601750  4.0264059125  -1.3133046875
Pb  2.2081708625  2.6842706125  -5.0289602750
4
scale = 1.30000
Li  0.0000000000  0.0000000000  0.0000000000
Pb  3.9932687990  1.3958207120  -1.3658368750
Pb  0.5997265820  4.1874621490  -1.3658368750
Pb  2.2964976970  2.7916414370  -5.2301186860
4
scale = 1.35000
Li  0.0000000000  0.0000000000  0.0000000000
Pb  4.1468560605  1.4495061240  -1.4183690625
Pb  0.6227929890  4.3485183855  -1.4183690625
Pb  2.3848245315  2.8990122615  -5.4312770970
4
scale = 1.40000
Li  0.0000000000  0.0000000000  0.0000000000
Pb  4.3004433220  1.5031915360  -1.4709012500
Pb  0.6458593960  4.5095746220  -1.4709012500
Pb  2.4731513660  3.0063830860  -5.6324355080
4
scale = 1.45000
Li  0.0000000000  0.0000000000  0.0000000000
Pb  4.4540305835  1.5568769480  -1.5234334375
Pb  0.6689258030  4.6706308585  -1.5234334375
Pb  2.5614782005  3.1137539105  -5.8335939190
4
scale = 1.50000
Li  0.0000000000  0.0000000000  0.0000000000
Pb  4.6076178450  1.6105623600  -1.5759656250
Pb  0.6919922100  4.8316870950  -1.5759656250
Pb  2.6498050350  3.2211247350  -6.0347523300
4
scale = 1.55000
Li  0.0000000000  0.0000000000  0.0000000000
Pb  4.7612051065  1.6642477720  -1.6284978125
Pb  0.7150586170  4.9927433315  -1.6284978125
Pb  2.7381318695  3.3284955595  -6.2359107410
4
scale = 1.60000
Li  0.0000000000  0.0000000000  0.0000000000
Pb  4.9147923680  1.7179331840  -1.6810300000
Pb  0.7381250240  5.1537995680  -1.6810300000
Pb  2.8264587040  3.4358663840  -6.4370691520
4
scale = 1.65000
Li  0.0000000000  0.0000000000  0.0000000000
Pb  5.0683796295  1.7716185960  -1.7335621875
Pb  0.7611914310  5.3148558045  -1.7335621875
Pb  2.9147855385  3.5432372085  -6.6382275630
4
scale = 1.70000
Li  0.0000000000  0.0000000000  0.0000000000
Pb  5.2219668910  1.8253040080  -1.7860943750
Pb  0.7842578380  5.4759120410  -1.7860943750
Pb  3.0031123730  3.6506080330  -6.8393859740
4
scale = 1.75000
Li  0.0000000000  0.0000000000  0.0000000000
Pb  5.3755541525  1.8789894200  -1.8386265625
Pb  0.8073242450  5.6369682775  -1.8386265625
Pb  3.0914392075  3.7579788575  -7.0405443850
4
scale = 1.80000
Li  0.0000000000  0.0000000000  0.0000000000
Pb  5.5291414140  1.9326748320  -1.8911587500
Pb  0.8303906520  5.7980245140  -1.8911587500
Pb  3.1797660420  3.8653496820  -7.2417027960
4
scale = 1.85000
Li  0.0000000000  0.0000000000  0.0000000000
Pb  5.6827286755  1.9863602440  -1.9436909375
Pb  0.8534570590  5.9590807505  -1.9436909375
Pb  3.2680928765  3.9727205065  -7.4428612070
4
scale = 1.90000
Li  0.0000000000  0.0000000000  0.0000000000
Pb  5.8363159370  2.0400456560  -1.9962231250
Pb  0.8765234660  6.1201369870  -1.9962231250
Pb  3.3564197110  4.0800913310  -7.6440196180
4
scale = 1.95000
Li  0.0000000000  0.0000000000  0.0000000000
Pb  5.9899031985  2.0937310680  -2.0487553125
Pb  0.8995898730  6.2811932235  -2.0487553125
Pb  3.4447465455  4.1874621555  -7.8451780290
4
scale = 2.00000
Li  0.0000000000  0.0000000000  0.0000000000
Pb  6.1434904600  2.1474164800  -2.1012875000
Pb  0.9226562800  6.4422494600  -2.1012875000
Pb  3.5330733800  4.2948329800  -8.0463364400
4
scale = 2.05000
Li  0.0000000000  0.0000000000  0.0000000000
Pb  6.2970777215  2.2011018920  -2.1538196875
Pb  0.9457226870  6.6033056965  -2.1538196875
Pb  3.6214002145  4.4022038045  -8.2474948510
4
scale = 2.10000
Li  0.0000000000  0.0000000000  0.0000000000
Pb  6.4506649830  2.2547873040  -2.2063518750
Pb  0.9687890940  6.7643619330  -2.2063518750
Pb  3.7097270490  4.5095746290  -8.4486532620
4
scale = 2.15000
Li  0.0000000000  0.0000000000  0.0000000000
Pb  6.6042522445  2.3084727160  -2.2588840625
Pb  0.9918555010  6.9254181695  -2.2588840625
Pb  3.7980538835  4.6169454535  -8.6498116730
4
scale = 2.20000
Li  0.0000000000  0.0000000000  0.0000000000
Pb  6.7578395060  2.3621581280  -2.3114162500
Pb  1.0149219080  7.0864744060  -2.3114162500
Pb  3.8863807180  4.7243162780  -8.8509700840
4
scale = 2.25000
Li  0.0000000000  0.0000000000  0.0000000000
Pb  6.9114267675  2.4158435400  -2.3639484375
Pb  1.0379883150  7.2475306425  -2.3639484375
Pb  3.9747075525  4.8316871025  -9.0521284950
4
scale = 2.30000
Li  0.0000000000  0.0000000000  0.0000000000
Pb  7.0650140290  2.4695289520  -2.4164806250
Pb  1.0610547220  7.4085868790  -2.4164806250
Pb  4.0630343870  4.9390579270  -9.2532869060
4
scale = 2.35000
Li  0.0000000000  0.0000000000  0.0000000000
Pb  7.2186012905  2.5232143640  -2.4690128125
Pb  1.0841211290  7.5696431155  -2.4690128125
Pb  4.1513612215  5.0464287515  -9.4544453170
4
scale = 2.40000
Li  0.0000000000  0.0000000000  0.0000000000
Pb  7.3721885520  2.5768997760  -2.5215450000
Pb  1.1071875360  7.7306993520  -2.5215450000
Pb  4.2396880560  5.1537995760  -9.6556037280
4
scale = 2.45000
Li  0.0000000000  0.0000000000  0.0000000000
Pb  7.5257758135  2.6305851880  -2.5740771875
Pb  1.1302539430  7.8917555885  -2.5740771875
Pb  4.3280148905  5.2611704005  -9.8567621390
