2
scale = 0.75000
Li  0.0000000000  0.0000000000  0.0000000000
Pd  0.0000002550  1.2021412950  1.5398313075
2
scale = 0.80000
Li  0.0000000000  0.0000000000  0.0000000000
Pd  0.0000002720  1.2822840480  1.6424867280
2
scale = 0.85000
Li  0.0000000000  0.0000000000  0.0000000000
Pd  0.0000002890  1.3624268010  1.7451421485
2
scale = 0.90000
Li  0.0000000000  0.0000000000  0.0000000000
Pd  0.0000003060  1.4425695540  1.8477975690
2
scale = 0.95000
Li  0.0000000000  0.0000000000  0.0000000000
Pd  0.0000003230  1.5227123070  1.9504529895
2
scale = 1.00000
Li  0.0000000000  0.0000000000  0.0000000000
Pd  0.0000003400  1.6028550600  2.0531084100
2
scale = 1.05000
Li  0.0000000000  0.0000000000  0.0000000000
Pd  0.0000003570  1.6829978130  2.1557638305
2
scale = 1.10000
Li  0.0000000000  0.0000000000  0.0000000000
Pd  0.0000003740  1.7631405660  2.2584192510
2
scale = 1.15000
Li  0.0000000000  0.0000000000  0.0000000000
Pd  0.0000003910  1.8432833190  2.3610746715
2
scale = 1.20000
Li  0.0000000000  0.0000000000  0.0000000000
Pd  0.0000004080  1.9234260720  2.4637300920
2
scale = 1.25000
Li  0.0000000000  0.0000000000  0.0000000000
Pd  0.0000004250  2.0035688250  2.5663855125
2
scale = 1.30000
Li  0.0000000000  0.0000000000  0.0000000000
Pd  0.0000004420  2.0837115780  2.6690409330
2
scale = 1.35000
Li  0.0000000000  0.0000000000  0.0000000000
Pd  0.0000004590  2.1638543310  2.7716963535
2
scale = 1.40000
Li  0.0000000000  0.0000000000  0.0000000000
Pd  0.0000004760  2.2439970840  2.8743517740
2
scale = 1.45000
Li  0.0000000000  0.0000000000  0.0000000000
Pd  0.0000004930  2.3241398370  2.9770071945
2
scale = 1.50000
Li  0.0000000000  0.0000000000  0.0000000000
Pd  0.0000005100  2.4042825900  3.0796626150
2
scale = 1.55000
Li  0.0000000000  0.0000000000  0.0000000000
Pd  0.0000005270  2.4844253430  3.1823180355
2
scale = 1.60000
Li  0.0000000000  0.0000000000  0.0000000000
Pd  0.0000005440  2.5645680960  3.2849734560
2
scale = 1.65000
Li  0.0000000000  0.0000000000  0.0000000000
Pd  0.0000005610  2.6447108490  3.3876288765
2
scale = 1.70000
Li  0.0000000000  0.0000000000  0.0000000000
Pd  0.0000005780  2.7248536020  3.4902842970
2
scale = 1.75000
Li  0.0000000000  0.0000000000  0.0000000000
Pd  0.0000005950  2.8049963550  3.5929397175
2
scale = 1.80000
Li  0.0000000000  0.0000000000  0.0000000000
Pd  0.0000006120  2.8851391080  3.6955951380
2
scale = 1.85000
Li  0.0000000000  0.0000000000  0.0000000000
Pd  0.0000006290  2.9652818610  3.7982505585
2
scale = 1.90000
Li  0.0000000000  0.0000000000  0.0000000000
Pd  0.0000006460  3.0454246140  3.9009059790
2
scale = 1.95000
Li  0.0000000000  0.0000000000  0.0000000000
Pd  0.0000006630  3.1255673670  4.0035613995
2
scale = 2.00000
Li  0.0000000000  0.0000000000  0.0000000000
Pd  0.0000006800  3.2057101200  4.1062168200
2
scale = 2.05000
Li  0.0000000000  0.0000000000  0.0000000000
Pd  0.0000006970  3.2858528730  4.2088722405
2
scale = 2.10000
Li  0.0000000000  0.0000000000  0.0000000000
Pd  0.0000007140  3.3659956260  4.3115276610
2
scale = 2.15000
Li  0.0000000000  0.0000000000  0.0000000000
Pd  0.0000007310  3.4461383790  4.4141830815
2
scale = 2.20000
Li  0.0000000000  0.0000000000  0.0000000000
Pd  0.0000007480  3.5262811320  4.5168385020
2
scale = 2.25000
Li  0.0000000000  0.0000000000  0.0000000000
Pd  0.0000007650  3.6064238850  4.6194939225
2
scale = 2.30000
Li  0.0000000000  0.0000000000  0.0000000000
Pd  0.0000007820  3.6865666380  4.7221493430
2
scale = 2.35000
Li  0.0000000000  0.0000000000  0.0000000000
Pd  0.0000007990  3.7667093910  4.8248047635
2
scale = 2.40000
Li  0.0000000000  0.0000000000  0.0000000000
Pd  0.0000008160  3.8468521440  4.9274601840
2
scale = 2.45000
Li  0.0000000000  0.0000000000  0.0000000000
Pd  0.0000008330  3.9269948970  5.0301156045
