8
scale = 0.75000
Li  0.0000000000  0.0000000000  0.0000000000
Pd  2.3795075625  1.6825659300  4.1214279900
Pd  1.7846306700  0.0000000000  1.0303569975
Pd  1.7846306700  0.0000000000  3.0910709925
Pd  2.3795075625  1.6825659300  2.0607139950
Pd  0.5948768925  1.6825659300  3.0910709925
Pd  0.5948768925  1.6825659300  1.0303569975
Pd  0.0000000000  0.0000000000  2.0607139950
8
scale = 0.80000
Li  0.0000000000  0.0000000000  0.0000000000
Pd  2.5381414000  1.7947369920  4.3961898560
Pd  1.9036060480  0.0000000000  1.0990474640
Pd  1.9036060480  0.0000000000  3.2971423920
Pd  2.5381414000  1.7947369920  2.1980949280
Pd  0.6345353520  1.7947369920  3.2971423920
Pd  0.6345353520  1.7947369920  1.0990474640
Pd  0.0000000000  0.0000000000  2.1980949280
8
scale = 0.85000
Li  0.0000000000  0.0000000000  0.0000000000
Pd  2.6967752375  1.9069080540  4.6709517220
Pd  2.0225814260  0.0000000000  1.1677379305
Pd  2.0225814260  0.0000000000  3.5032137915
Pd  2.6967752375  1.9069080540  2.3354758610
Pd  0.6741938115  1.9069080540  3.5032137915
Pd  0.6741938115  1.9069080540  1.1677379305
Pd  0.0000000000  0.0000000000  2.3354758610
8
scale = 0.90000
Li  0.0000000000  0.0000000000  0.0000000000
Pd  2.8554090750  2.0190791160  4.9457135880
Pd  2.1415568040  0.0000000000  1.2364283970
Pd  2.1415568040  0.0000000000  3.7092851910
Pd  2.8554090750  2.0190791160  2.4728567940
Pd  0.7138522710  2.0190791160  3.7092851910
Pd  0.7138522710  2.0190791160  1.2364283970
Pd  0.0000000000  0.0000000000  2.4728567940
8
scale = 0.95000
Li  0.0000000000  0.0000000000  0.0000000000
Pd  3.0140429125  2.1312501780  5.2204754540
Pd  2.2605321820  0.0000000000  1.3051188635
Pd  2.2605321820  0.0000000000  3.9153565905
Pd  3.0140429125  2.1312501780  2.6102377270
Pd  0.7535107305  2.1312501780  3.9153565905
Pd  0.7535107305  2.1312501780  1.3051188635
Pd  0.0000000000  0.0000000000  2.6102377270
8
scale = 1.00000
Li  0.0000000000  0.0000000000  0.0000000000
Pd  3.1726767500  2.2434212400  5.4952373200
Pd  2.3795075600  0.0000000000  1.3738093300
Pd  2.3795075600  0.0000000000  4.1214279900
Pd  3.1726767500  2.2434212400  2.7476186600
Pd  0.7931691900  2.2434212400  4.1214279900
Pd  0.7931691900  2.2434212400  1.3738093300
Pd  0.0000000000  0.0000000000  2.7476186600
8
scale = 1.05000
Li  0.0000000000  0.0000000000  0.0000000000
Pd  3.3313105875  2.3555923020  5.7699991860
Pd  2.4984829380  0.0000000000  1.4424997965
Pd  2.4984829380  0.0000000000  4.3274993895
Pd  3.3313105875  2.3555923020  2.8849995930
Pd  0.8328276495  2.3555923020  4.3274993895
Pd  0.8328276495  2.3555923020  1.4424997965
Pd  0.0000000000  0.0000000000  2.8849995930
8
scale = 1.10000
Li  0.0000000000  0.0000000000  0.0000000000
Pd  3.4899444250  2.4677633640  6.0447610520
Pd  2.6174583160  0.0000000000  1.5111902630
Pd  2.6174583160  0.0000000000  4.5335707890
Pd  3.4899444250  2.4677633640  3.0223805260
Pd  0.8724861090  2.4677633640  4.5335707890
Pd  0.8724861090  2.4677633640  1.5111902630
Pd  0.0000000000  0.0000000000  3.0223805260
8
scale = 1.15000
Li  0.0000000000  0.0000000000  0.0000000000
Pd  3.6485782625  2.5799344260  6.3195229180
Pd  2.7364336940  0.0000000000  1.5798807295
Pd  2.7364336940  0.0000000000  4.7396421885
Pd  3.6485782625  2.5799344260  3.1597614590
Pd  0.9121445685  2.5799344260  4.7396421885
Pd  0.9121445685  2.5799344260  1.5798807295
Pd  0.0000000000  0.0000000000  3.1597614590
8
scale = 1.20000
Li  0.0000000000  0.0000000000  0.0000000000
Pd  3.8072121000  2.6921054880  6.5942847840
Pd  2.8554090720  0.0000000000  1.6485711960
Pd  2.8554090720  0.0000000000  4.9457135880
Pd  3.8072121000  2.6921054880  3.2971423920
Pd  0.9518030280  2.6921054880  4.9457135880
Pd  0.9518030280  2.6921054880  1.6485711960
Pd  0.0000000000  0.0000000000  3.2971423920
8
scale = 1.25000
Li  0.0000000000  0.0000000000  0.0000000000
Pd  3.9658459375  2.8042765500  6.8690466500
Pd  2.9743844500  0.0000000000  1.7172616625
Pd  2.9743844500  0.0000000000  5.1517849875
Pd  3.9658459375  2.8042765500  3.4345233250
Pd  0.9914614875  2.8042765500  5.1517849875
Pd  0.9914614875  2.8042765500  1.7172616625
Pd  0.0000000000  0.0000000000  3.4345233250
8
scale = 1.30000
Li  0.0000000000  0.0000000000  0.0000000000
Pd  4.1244797750  2.9164476120  7.1438085160
Pd  3.0933598280  0.0000000000  1.7859521290
Pd  3.0933598280  0.0000000000  5.3578563870
Pd  4.1244797750  2.9164476120  3.5719042580
Pd  1.0311199470  2.9164476120  5.3578563870
Pd  1.0311199470  2.9164476120  1.7859521290
Pd  0.0000000000  0.0000000000  3.5719042580
8
scale = 1.35000
Li  0.0000000000  0.0000000000  0.0000000000
Pd  4.2831136125  3.0286186740  7.4185703820
Pd  3.2123352060  0.0000000000  1.8546425955
Pd  3.2123352060  0.0000000000  5.5639277865
Pd  4.2831136125  3.0286186740  3.7092851910
Pd  1.0707784065  3.0286186740  5.5639277865
Pd  1.0707784065  3.0286186740  1.8546425955
Pd  0.0000000000  0.0000000000  3.7092851910
8
scale = 1.40000
Li  0.0000000000  0.0000000000  0.0000000000
Pd  4.4417474500  3.1407897360  7.6933322480
Pd  3.3313105840  0.0000000000  1.9233330620
Pd  3.3313105840  0.0000000000  5.7699991860
Pd  4.4417474500  3.1407897360  3.8466661240
Pd  1.1104368660  3.1407897360  5.7699991860
Pd  1.1104368660  3.1407897360  1.9233330620
Pd  0.0000000000  0.0000000000  3.8466661240
8
scale = 1.45000
Li  0.0000000000  0.0000000000  0.0000000000
Pd  4.6003812875  3.2529607980  7.9680941140
Pd  3.4502859620  0.0000000000  1.9920235285
Pd  3.4502859620  0.0000000000  5.9760705855
Pd  4.6003812875  3.2529607980  3.9840470570
Pd  1.1500953255  3.2529607980  5.9760705855
Pd  1.1500953255  3.2529607980  1.9920235285
Pd  0.0000000000  0.0000000000  3.9840470570
8
scale = 1.50000
Li  0.0000000000  0.0000000000  0.0000000000
Pd  4.7590151250  3.3651318600  8.2428559800
Pd  3.5692613400  0.0000000000  2.0607139950
Pd  3.5692613400  0.0000000000  6.1821419850
Pd  4.7590151250  3.3651318600  4.1214279900
Pd  1.1897537850  3.3651318600  6.1821419850
Pd  1.1897537850  3.3651318600  2.0607139950
Pd  0.0000000000  0.0000000000  4.1214279900
8
scale = 1.55000
Li  0.0000000000  0.0000000000  0.0000000000
Pd  4.9176489625  3.4773029220  8.5176178460
Pd  3.6882367180  0.0000000000  2.1294044615
Pd  3.6882367180  0.0000000000  6.3882133845
Pd  4.9176489625  3.4773029220  4.2588089230
Pd  1.2294122445  3.4773029220  6.3882133845
Pd  1.2294122445  3.4773029220  2.1294044615
Pd  0.0000000000  0.0000000000  4.2588089230
8
scale = 1.60000
Li  0.0000000000  0.0000000000  0.0000000000
Pd  5.0762828000  3.5894739840  8.7923797120
Pd  3.8072120960  0.0000000000  2.1980949280
Pd  3.8072120960  0.0000000000  6.5942847840
Pd  5.0762828000  3.5894739840  4.3961898560
Pd  1.2690707040  3.5894739840  6.5942847840
Pd  1.2690707040  3.5894739840  2.1980949280
Pd  0.0000000000  0.0000000000  4.3961898560
8
scale = 1.65000
Li  0.0000000000  0.0000000000  0.0000000000
Pd  5.2349166375  3.7016450460  9.0671415780
Pd  3.9261874740  0.0000000000  2.2667853945
Pd  3.9261874740  0.0000000000  6.8003561835
Pd  5.2349166375  3.7016450460  4.5335707890
Pd  1.3087291635  3.7016450460  6.8003561835
Pd  1.3087291635  3.7016450460  2.2667853945
Pd  0.0000000000  0.0000000000  4.5335707890
8
scale = 1.70000
Li  0.0000000000  0.0000000000  0.0000000000
Pd  5.3935504750  3.8138161080  9.3419034440
Pd  4.0451628520  0.0000000000  2.3354758610
Pd  4.0451628520  0.0000000000  7.0064275830
Pd  5.3935504750  3.8138161080  4.6709517220
Pd  1.3483876230  3.8138161080  7.0064275830
Pd  1.3483876230  3.8138161080  2.3354758610
Pd  0.0000000000  0.0000000000  4.6709517220
8
scale = 1.75000
Li  0.0000000000  0.0000000000  0.0000000000
Pd  5.5521843125  3.9259871700  9.6166653100
Pd  4.1641382300  0.0000000000  2.4041663275
Pd  4.1641382300  0.0000000000  7.2124989825
Pd  5.5521843125  3.9259871700  4.8083326550
Pd  1.3880460825  3.9259871700  7.2124989825
Pd  1.3880460825  3.9259871700  2.4041663275
Pd  0.0000000000  0.0000000000  4.8083326550
8
scale = 1.80000
Li  0.0000000000  0.0000000000  0.0000000000
Pd  5.7108181500  4.0381582320  9.8914271760
Pd  4.2831136080  0.0000000000  2.4728567940
Pd  4.2831136080  0.0000000000  7.4185703820
Pd  5.7108181500  4.0381582320  4.9457135880
Pd  1.4277045420  4.0381582320  7.4185703820
Pd  1.4277045420  4.0381582320  2.4728567940
Pd  0.0000000000  0.0000000000  4.9457135880
8
scale = 1.85000
Li  0.0000000000  0.0000000000  0.0000000000
Pd  5.8694519875  4.1503292940  10.1661890420
Pd  4.4020889860  0.0000000000  2.5415472605
Pd  4.4020889860  0.0000000000  7.6246417815
Pd  5.8694519875  4.1503292940  5.0830945210
Pd  1.4673630015  4.1503292940  7.6246417815
Pd  1.4673630015  4.1503292940  2.5415472605
Pd  0.0000000000  0.0000000000  5.0830945210
8
scale = 1.90000
Li  0.0000000000  0.0000000000  0.0000000000
Pd  6.0280858250  4.2625003560  10.4409509080
Pd  4.5210643640  0.0000000000  2.6102377270
Pd  4.5210643640  0.0000000000  7.8307131810
Pd  6.0280858250  4.2625003560  5.2204754540
Pd  1.5070214610  4.2625003560  7.8307131810
Pd  1.5070214610  4.2625003560  2.6102377270
Pd  0.0000000000  0.0000000000  5.2204754540
8
scale = 1.95000
Li  0.0000000000  0.0000000000  0.0000000000
Pd  6.1867196625  4.3746714180  10.7157127740
Pd  4.6400397420  0.0000000000  2.6789281935
Pd  4.6400397420  0.0000000000  8.0367845805
Pd  6.1867196625  4.3746714180  5.3578563870
Pd  1.5466799205  4.3746714180  8.0367845805
Pd  1.5466799205  4.3746714180  2.6789281935
Pd  0.0000000000  0.0000000000  5.3578563870
8
scale = 2.00000
Li  0.0000000000  0.0000000000  0.0000000000
Pd  6.3453535000  4.4868424800  10.9904746400
Pd  4.7590151200  0.0000000000  2.7476186600
Pd  4.7590151200  0.0000000000  8.2428559800
Pd  6.3453535000  4.4868424800  5.4952373200
Pd  1.5863383800  4.4868424800  8.2428559800
Pd  1.5863383800  4.4868424800  2.7476186600
Pd  0.0000000000  0.0000000000  5.4952373200
8
scale = 2.05000
Li  0.0000000000  0.0000000000  0.0000000000
Pd  6.5039873375  4.5990135420  11.2652365060
Pd  4.8779904980  0.0000000000  2.8163091265
Pd  4.8779904980  0.0000000000  8.4489273795
Pd  6.5039873375  4.5990135420  5.6326182530
Pd  1.6259968395  4.5990135420  8.4489273795
Pd  1.6259968395  4.5990135420  2.8163091265
Pd  0.0000000000  0.0000000000  5.6326182530
8
scale = 2.10000
Li  0.0000000000  0.0000000000  0.0000000000
Pd  6.6626211750  4.7111846040  11.5399983720
Pd  4.9969658760  0.0000000000  2.8849995930
Pd  4.9969658760  0.0000000000  8.6549987790
Pd  6.6626211750  4.7111846040  5.7699991860
Pd  1.6656552990  4.7111846040  8.6549987790
Pd  1.6656552990  4.7111846040  2.8849995930
Pd  0.0000000000  0.0000000000  5.7699991860
8
scale = 2.15000
Li  0.0000000000  0.0000000000  0.0000000000
Pd  6.8212550125  4.8233556660  11.8147602380
Pd  5.1159412540  0.0000000000  2.9536900595
Pd  5.1159412540  0.0000000000  8.8610701785
Pd  6.8212550125  4.8233556660  5.9073801190
Pd  1.7053137585  4.8233556660  8.8610701785
Pd  1.7053137585  4.8233556660  2.9536900595
Pd  0.0000000000  0.0000000000  5.9073801190
8
scale = 2.20000
Li  0.0000000000  0.0000000000  0.0000000000
Pd  6.9798888500  4.9355267280  12.0895221040
Pd  5.2349166320  0.0000000000  3.0223805260
Pd  5.2349166320  0.0000000000  9.0671415780
Pd  6.9798888500  4.9355267280  6.0447610520
Pd  1.7449722180  4.9355267280  9.0671415780
Pd  1.7449722180  4.9355267280  3.0223805260
Pd  0.0000000000  0.0000000000  6.0447610520
8
scale = 2.25000
Li  0.0000000000  0.0000000000  0.0000000000
Pd  7.1385226875  5.0476977900  12.3642839700
Pd  5.3538920100  0.0000000000  3.0910709925
Pd  5.3538920100  0.0000000000  9.2732129775
Pd  7.1385226875  5.0476977900  6.1821419850
Pd  1.7846306775  5.0476977900  9.2732129775
Pd  1.7846306775  5.0476977900  3.0910709925
Pd  0.0000000000  0.0000000000  6.1821419850
8
scale = 2.30000
Li  0.0000000000  0.0000000000  0.0000000000
Pd  7.2971565250  5.1598688520  12.6390458360
Pd  5.4728673880  0.0000000000  3.1597614590
Pd  5.4728673880  0.0000000000  9.4792843770
Pd  7.2971565250  5.1598688520  6.3195229180
Pd  1.8242891370  5.1598688520  9.4792843770
Pd  1.8242891370  5.1598688520  3.1597614590
Pd  0.0000000000  0.0000000000  6.3195229180
8
scale = 2.35000
Li  0.0000000000  0.0000000000  0.0000000000
Pd  7.4557903625  5.2720399140  12.9138077020
Pd  5.5918427660  0.0000000000  3.2284519255
Pd  5.5918427660  0.0000000000  9.6853557765
Pd  7.4557903625  5.2720399140  6.4569038510
Pd  1.8639475965  5.2720399140  9.6853557765
Pd  1.8639475965  5.2720399140  3.2284519255
Pd  0.0000000000  0.0000000000  6.4569038510
8
scale = 2.40000
Li  0.0000000000  0.0000000000  0.0000000000
Pd  7.6144242000  5.3842109760  13.1885695680
Pd  5.7108181440  0.0000000000  3.2971423920
Pd  5.7108181440  0.0000000000  9.8914271760
Pd  7.6144242000  5.3842109760  6.5942847840
Pd  1.9036060560  5.3842109760  9.8914271760
Pd  1.9036060560  5.3842109760  3.2971423920
Pd  0.0000000000  0.0000000000  6.5942847840
8
scale = 2.45000
Li  0.0000000000  0.0000000000  0.0000000000
Pd  7.7730580375  5.4963820380  13.4633314340
Pd  5.8297935220  0.0000000000  3.3658328585
Pd  5.8297935220  0.0000000000  10.0974985755
Pd  7.7730580375  5.4963820380  6.7316657170
Pd  1.9432645155  5.4963820380  10.0974985755
Pd  1.9432645155  5.4963820380  3.3658328585
Pd  0.0000000000  0.0000000000  6.7316657170
