4
scale = 0.75000
Li  0.0000000000  0.0000000000  0.0000000000
Pd  0.0000028875  1.4439988950  1.4431836900
Pd  1.4440643400  0.0000028875  1.4431858050
Pd  1.4440672275  1.4440017900  0.0000021150
4
scale = 0.80000
Li  0.0000000000  0.0000000000  0.0000000000
Pd  0.0000030800  1.5402654880  1.5393959360
Pd  1.5403352960  0.0000030800  1.5393981920
Pd  1.5403383760  1.5402685760  0.0000022560
4
scale = 0.85000
Li  0.0000000000  0.0000000000  0.0000000000
Pd  0.0000032725  1.6365320810  1.6356081820
Pd  1.6366062520  0.0000032725  1.6356105790
Pd  1.6366095245  1.6365353620  0.0000023970
4
scale = 0.90000
Li  0.0000000000  0.0000000000  0.0000000000
Pd  0.0000034650  1.7327986740  1.7318204280
Pd  1.7328772080  0.0000034650  1.7318229660
Pd  1.7328806730  1.7328021480  0.0000025380
4
scale = 0.95000
Li  0.0000000000  0.0000000000  0.0000000000
Pd  0.0000036575  1.8290652670  1.8280326740
Pd  1.8291481640  0.0000036575  1.8280353530
Pd  1.8291518215  1.8290689340  0.0000026790
4
scale = 1.00000
Li  0.0000000000  0.0000000000  0.0000000000
Pd  0.0000038500  1.9253318600  1.9242449200
Pd  1.9254191200  0.0000038500  1.9242477400
Pd  1.9254229700  1.9253357200  0.0000028200
4
scale = 1.05000
Li  0.0000000000  0.0000000000  0.0000000000
Pd  0.0000040425  2.0215984530  2.0204571660
Pd  2.0216900760  0.0000040425  2.0204601270
Pd  2.0216941185  2.0216025060  0.0000029610
4
scale = 1.10000
Li  0.0000000000  0.0000000000  0.0000000000
Pd  0.0000042350  2.1178650460  2.1166694120
Pd  2.1179610320  0.0000042350  2.1166725140
Pd  2.1179652670  2.1178692920  0.0000031020
4
scale = 1.15000
Li  0.0000000000  0.0000000000  0.0000000000
Pd  0.0000044275  2.2141316390  2.2128816580
Pd  2.2142319880  0.0000044275  2.2128849010
Pd  2.2142364155  2.2141360780  0.0000032430
4
scale = 1.20000
Li  0.0000000000  0.0000000000  0.0000000000
Pd  0.0000046200  2.3103982320  2.3090939040
Pd  2.3105029440  0.0000046200  2.3090972880
Pd  2.3105075640  2.3104028640  0.0000033840
4
scale = 1.25000
Li  0.0000000000  0.0000000000  0.0000000000
Pd  0.0000048125  2.4066648250  2.4053061500
Pd  2.4067739000  0.0000048125  2.4053096750
Pd  2.4067787125  2.4066696500  0.0000035250
4
scale = 1.30000
Li  0.0000000000  0.0000000000  0.0000000000
Pd  0.0000050050  2.5029314180  2.5015183960
Pd  2.5030448560  0.0000050050  2.5015220620
Pd  2.5030498610  2.5029364360  0.0000036660
4
scale = 1.35000
Li  0.0000000000  0.0000000000  0.0000000000
Pd  0.0000051975  2.5991980110  2.5977306420
Pd  2.5993158120  0.0000051975  2.5977344490
Pd  2.5993210095  2.5992032220  0.0000038070
4
scale = 1.40000
Li  0.0000000000  0.0000000000  0.0000000000
Pd  0.0000053900  2.6954646040  2.6939428880
Pd  2.6955867680  0.0000053900  2.6939468360
Pd  2.6955921580  2.6954700080  0.0000039480
4
scale = 1.45000
Li  0.0000000000  0.0000000000  0.0000000000
Pd  0.0000055825  2.7917311970  2.7901551340
Pd  2.7918577240  0.0000055825  2.7901592230
Pd  2.7918633065  2.7917367940  0.0000040890
4
scale = 1.50000
Li  0.0000000000  0.0000000000  0.0000000000
Pd  0.0000057750  2.8879977900  2.8863673800
Pd  2.8881286800  0.0000057750  2.8863716100
Pd  2.8881344550  2.8880035800  0.0000042300
4
scale = 1.55000
Li  0.0000000000  0.0000000000  0.0000000000
Pd  0.0000059675  2.9842643830  2.9825796260
Pd  2.9843996360  0.0000059675  2.9825839970
Pd  2.9844056035  2.9842703660  0.0000043710
4
scale = 1.60000
Li  0.0000000000  0.0000000000  0.0000000000
Pd  0.0000061600  3.0805309760  3.0787918720
Pd  3.0806705920  0.0000061600  3.0787963840
Pd  3.0806767520  3.0805371520  0.0000045120
4
scale = 1.65000
Li  0.0000000000  0.0000000000  0.0000000000
Pd  0.0000063525  3.1767975690  3.1750041180
Pd  3.1769415480  0.0000063525  3.1750087710
Pd  3.1769479005  3.1768039380  0.0000046530
4
scale = 1.70000
Li  0.0000000000  0.0000000000  0.0000000000
Pd  0.0000065450  3.2730641620  3.2712163640
Pd  3.2732125040  0.0000065450  3.2712211580
Pd  3.2732190490  3.2730707240  0.0000047940
4
scale = 1.75000
Li  0.0000000000  0.0000000000  0.0000000000
Pd  0.0000067375  3.3693307550  3.3674286100
Pd  3.3694834600  0.0000067375  3.3674335450
Pd  3.3694901975  3.3693375100  0.0000049350
4
scale = 1.80000
Li  0.0000000000  0.0000000000  0.0000000000
Pd  0.0000069300  3.4655973480  3.4636408560
Pd  3.4657544160  0.0000069300  3.4636459320
Pd  3.4657613460  3.4656042960  0.0000050760
4
scale = 1.85000
Li  0.0000000000  0.0000000000  0.0000000000
Pd  0.0000071225  3.5618639410  3.5598531020
Pd  3.5620253720  0.0000071225  3.5598583190
Pd  3.5620324945  3.5618710820  0.0000052170
4
scale = 1.90000
Li  0.0000000000  0.0000000000  0.0000000000
Pd  0.0000073150  3.6581305340  3.6560653480
Pd  3.6582963280  0.0000073150  3.6560707060
Pd  3.6583036430  3.6581378680  0.0000053580
4
scale = 1.95000
Li  0.0000000000  0.0000000000  0.0000000000
Pd  0.0000075075  3.7543971270  3.7522775940
Pd  3.7545672840  0.0000075075  3.7522830930
Pd  3.7545747915  3.7544046540  0.0000054990
4
scale = 2.00000
Li  0.0000000000  0.0000000000  0.0000000000
Pd  0.0000077000  3.8506637200  3.8484898400
Pd  3.8508382400  0.0000077000  3.8484954800
Pd  3.8508459400  3.8506714400  0.0000056400
4
scale = 2.05000
Li  0.0000000000  0.0000000000  0.0000000000
Pd  0.0000078925  3.9469303130  3.9447020860
Pd  3.9471091960  0.0000078925  3.9447078670
Pd  3.9471170885  3.9469382260  0.0000057810
4
scale = 2.10000
Li  0.0000000000  0.0000000000  0.0000000000
Pd  0.0000080850  4.0431969060  4.0409143320
Pd  4.0433801520  0.0000080850  4.0409202540
Pd  4.0433882370  4.0432050120  0.0000059220
4
scale = 2.15000
Li  0.0000000000  0.0000000000  0.0000000000
Pd  0.0000082775  4.1394634990  4.1371265780
Pd  4.1396511080  0.0000082775  4.1371326410
Pd  4.1396593855  4.1394717980  0.0000060630
4
scale = 2.20000
Li  0.0000000000  0.0000000000  0.0000000000
Pd  0.0000084700  4.2357300920  4.2333388240
Pd  4.2359220640  0.0000084700  4.2333450280
Pd  4.2359305340  4.2357385840  0.0000062040
4
scale = 2.25000
Li  0.0000000000  0.0000000000  0.0000000000
Pd  0.0000086625  4.3319966850  4.3295510700
Pd  4.3321930200  0.0000086625  4.3295574150
Pd  4.3322016825  4.3320053700  0.0000063450
4
scale = 2.30000
Li  0.0000000000  0.0000000000  0.0000000000
Pd  0.0000088550  4.4282632780  4.4257633160
Pd  4.4284639760  0.0000088550  4.4257698020
Pd  4.4284728310  4.4282721560  0.0000064860
4
scale = 2.35000
Li  0.0000000000  0.0000000000  0.0000000000
Pd  0.0000090475  4.5245298710  4.5219755620
Pd  4.5247349320  0.0000090475  4.5219821890
Pd  4.5247439795  4.5245389420  0.0000066270
4
scale = 2.40000
Li  0.0000000000  0.0000000000  0.0000000000
Pd  0.0000092400  4.6207964640  4.6181878080
Pd  4.6210058880  0.0000092400  4.6181945760
Pd  4.6210151280  4.6208057280  0.0000067680
4
scale = 2.45000
Li  0.0000000000  0.0000000000  0.0000000000
Pd  0.0000094325  4.7170630570  4.7144000540
Pd  4.7172768440  0.0000094325  4.7144069630
Pd  4.7172862765  4.7170725140  0.0000069090
