2
scale = 0.75000
Li  0.0000000000  0.0000000000  0.0000000000
Pd  1.1098793550  1.1098793550  1.1098793625
2
scale = 0.80000
Li  0.0000000000  0.0000000000  0.0000000000
Pd  1.1838713120  1.1838713120  1.1838713200
2
scale = 0.85000
Li  0.0000000000  0.0000000000  0.0000000000
Pd  1.2578632690  1.2578632690  1.2578632775
2
scale = 0.90000
Li  0.0000000000  0.0000000000  0.0000000000
Pd  1.3318552260  1.3318552260  1.3318552350
2
scale = 0.95000
Li  0.0000000000  0.0000000000  0.0000000000
Pd  1.4058471830  1.4058471830  1.4058471925
2
scale = 1.00000
Li  0.0000000000  0.0000000000  0.0000000000
Pd  1.4798391400  1.4798391400  1.4798391500
2
scale = 1.05000
Li  0.0000000000  0.0000000000  0.0000000000
Pd  1.5538310970  1.5538310970  1.5538311075
2
scale = 1.10000
Li  0.0000000000  0.0000000000  0.0000000000
Pd  1.6278230540  1.6278230540  1.6278230650
2
scale = 1.15000
Li  0.0000000000  0.0000000000  0.0000000000
Pd  1.7018150110  1.7018150110  1.7018150225
2
scale = 1.20000
Li  0.0000000000  0.0000000000  0.0000000000
Pd  1.7758069680  1.7758069680  1.7758069800
2
scale = 1.25000
Li  0.0000000000  0.0000000000  0.0000000000
Pd  1.8497989250  1.8497989250  1.8497989375
2
scale = 1.30000
Li  0.0000000000  0.0000000000  0.0000000000
Pd  1.9237908820  1.9237908820  1.9237908950
2
scale = 1.35000
Li  0.0000000000  0.0000000000  0.0000000000
Pd  1.9977828390  1.9977828390  1.9977828525
2
scale = 1.40000
Li  0.0000000000  0.0000000000  0.0000000000
Pd  2.0717747960  2.0717747960  2.0717748100
2
scale = 1.45000
Li  0.0000000000  0.0000000000  0.0000000000
Pd  2.1457667530  2.1457667530  2.1457667675
2
scale = 1.50000
Li  0.0000000000  0.0000000000  0.0000000000
Pd  2.2197587100  2.2197587100  2.2197587250
2
scale = 1.55000
Li  0.0000000000  0.0000000000  0.0000000000
Pd  2.2937506670  2.2937506670  2.2937506825
2
scale = 1.60000
Li  0.0000000000  0.0000000000  0.0000000000
Pd  2.3677426240  2.3677426240  2.3677426400
2
scale = 1.65000
Li  0.0000000000  0.0000000000  0.0000000000
Pd  2.4417345810  2.4417345810  2.4417345975
2
scale = 1.70000
Li  0.0000000000  0.0000000000  0.0000000000
Pd  2.5157265380  2.5157265380  2.5157265550
2
scale = 1.75000
Li  0.0000000000  0.0000000000  0.0000000000
Pd  2.5897184950  2.5897184950  2.5897185125
2
scale = 1.80000
Li  0.0000000000  0.0000000000  0.0000000000
Pd  2.6637104520  2.6637104520  2.6637104700
2
scale = 1.85000
Li  0.0000000000  0.0000000000  0.0000000000
Pd  2.7377024090  2.7377024090  2.7377024275
2
scale = 1.90000
Li  0.0000000000  0.0000000000  0.0000000000
Pd  2.8116943660  2.8116943660  2.8116943850
2
scale = 1.95000
Li  0.0000000000  0.0000000000  0.0000000000
Pd  2.8856863230  2.8856863230  2.8856863425
2
scale = 2.00000
Li  0.0000000000  0.0000000000  0.0000000000
Pd  2.9596782800  2.9596782800  2.9596783000
2
scale = 2.05000
Li  0.0000000000  0.0000000000  0.0000000000
Pd  3.0336702370  3.0336702370  3.0336702575
2
scale = 2.10000
Li  0.0000000000  0.0000000000  0.0000000000
Pd  3.1076621940  3.1076621940  3.1076622150
2
scale = 2.15000
Li  0.0000000000  0.0000000000  0.0000000000
Pd  3.1816541510  3.1816541510  3.1816541725
2
scale = 2.20000
Li  0.0000000000  0.0000000000  0.0000000000
Pd  3.2556461080  3.2556461080  3.2556461300
2
scale = 2.25000
Li  0.0000000000  0.0000000000  0.0000000000
Pd  3.3296380650  3.3296380650  3.3296380875
2
scale = 2.30000
Li  0.0000000000  0.0000000000  0.0000000000
Pd  3.4036300220  3.4036300220  3.4036300450
2
scale = 2.35000
Li  0.0000000000  0.0000000000  0.0000000000
Pd  3.4776219790  3.4776219790  3.4776220025
2
scale = 2.40000
Li  0.0000000000  0.0000000000  0.0000000000
Pd  3.5516139360  3.5516139360  3.5516139600
2
scale = 2.45000
Li  0.0000000000  0.0000000000  0.0000000000
Pd  3.6256058930  3.6256058930  3.6256059175
