4
scale = 0.75000
Li  0.0000000000  0.0000000000  0.0000000000
Pm  1.8746032500  1.8746032500  0.0000000000
Pm  1.8746032500  0.0000000000  1.8746032500
Pm  -0.0000000000  1.8746032500  1.8746032500
4
scale = 0.80000
Li  0.0000000000  0.0000000000  0.0000000000
Pm  1.9995768000  1.9995768000  0.0000000000
Pm  1.9995768000  0.0000000000  1.9995768000
Pm  -0.0000000000  1.9995768000  1.9995768000
4
scale = 0.85000
Li  0.0000000000  0.0000000000  0.0000000000
Pm  2.1245503500  2.1245503500  0.0000000000
Pm  2.1245503500  0.0000000000  2.1245503500
Pm  -0.0000000000  2.1245503500  2.1245503500
4
scale = 0.90000
Li  0.0000000000  0.0000000000  0.0000000000
Pm  2.2495239000  2.2495239000  0.0000000000
Pm  2.2495239000  0.0000000000  2.2495239000
Pm  -0.0000000000  2.2495239000  2.2495239000
4
scale = 0.95000
Li  0.0000000000  0.0000000000  0.0000000000
Pm  2.3744974500  2.3744974500  0.0000000000
Pm  2.3744974500  0.0000000000  2.3744974500
Pm  -0.0000000000  2.3744974500  2.3744974500
4
scale = 1.00000
Li  0.0000000000  0.0000000000  0.0000000000
Pm  2.4994710000  2.4994710000  0.0000000000
Pm  2.4994710000  0.0000000000  2.4994710000
Pm  -0.0000000000  2.4994710000  2.4994710000
4
scale = 1.05000
Li  0.0000000000  0.0000000000  0.0000000000
Pm  2.6244445500  2.6244445500  0.0000000000
Pm  2.6244445500  0.0000000000  2.6244445500
Pm  -0.0000000000  2.6244445500  2.6244445500
4
scale = 1.10000
Li  0.0000000000  0.0000000000  0.0000000000
Pm  2.7494181000  2.7494181000  0.0000000000
Pm  2.7494181000  0.0000000000  2.7494181000
Pm  -0.0000000000  2.7494181000  2.7494181000
4
scale = 1.15000
Li  0.0000000000  0.0000000000  0.0000000000
Pm  2.8743916500  2.8743916500  0.0000000000
Pm  2.8743916500  0.0000000000  2.8743916500
Pm  -0.0000000000  2.8743916500  2.8743916500
4
scale = 1.20000
Li  0.0000000000  0.0000000000  0.0000000000
Pm  2.9993652000  2.9993652000  0.0000000000
Pm  2.9993652000  0.0000000000  2.9993652000
Pm  -0.0000000000  2.9993652000  2.9993652000
4
scale = 1.25000
Li  0.0000000000  0.0000000000  0.0000000000
Pm  3.1243387500  3.1243387500  0.0000000000
Pm  3.1243387500  0.0000000000  3.1243387500
Pm  -0.0000000000  3.1243387500  3.1243387500
4
scale = 1.30000
Li  0.0000000000  0.0000000000  0.0000000000
Pm  3.2493123000  3.2493123000  0.0000000000
Pm  3.2493123000  0.0000000000  3.2493123000
Pm  -0.0000000000  3.2493123000  3.2493123000
4
scale = 1.35000
Li  0.0000000000  0.0000000000  0.0000000000
Pm  3.3742858500  3.3742858500  0.0000000000
Pm  3.3742858500  0.0000000000  3.3742858500
Pm  -0.0000000000  3.3742858500  3.3742858500
4
scale = 1.40000
Li  0.0000000000  0.0000000000  0.0000000000
Pm  3.4992594000  3.4992594000  0.0000000000
Pm  3.4992594000  0.0000000000  3.4992594000
Pm  -0.0000000000  3.4992594000  3.4992594000
4
scale = 1.45000
Li  0.0000000000  0.0000000000  0.0000000000
Pm  3.6242329500  3.6242329500  0.0000000000
Pm  3.6242329500  0.0000000000  3.6242329500
Pm  -0.0000000000  3.6242329500  3.6242329500
4
scale = 1.50000
Li  0.0000000000  0.0000000000  0.0000000000
Pm  3.7492065000  3.7492065000  0.0000000000
Pm  3.7492065000  0.0000000000  3.7492065000
Pm  -0.0000000000  3.7492065000  3.7492065000
4
scale = 1.55000
Li  0.0000000000  0.0000000000  0.0000000000
Pm  3.8741800500  3.8741800500  0.0000000000
Pm  3.8741800500  0.0000000000  3.8741800500
Pm  -0.0000000000  3.8741800500  3.8741800500
4
scale = 1.60000
Li  0.0000000000  0.0000000000  0.0000000000
Pm  3.9991536000  3.9991536000  0.0000000000
Pm  3.9991536000  0.0000000000  3.9991536000
Pm  -0.0000000000  3.9991536000  3.9991536000
4
scale = 1.65000
Li  0.0000000000  0.0000000000  0.0000000000
Pm  4.1241271500  4.1241271500  0.0000000000
Pm  4.1241271500  0.0000000000  4.1241271500
Pm  -0.0000000000  4.1241271500  4.1241271500
4
scale = 1.70000
Li  0.0000000000  0.0000000000  0.0000000000
Pm  4.2491007000  4.2491007000  0.0000000000
Pm  4.2491007000  0.0000000000  4.2491007000
Pm  -0.0000000000  4.2491007000  4.2491007000
4
scale = 1.75000
Li  0.0000000000  0.0000000000  0.0000000000
Pm  4.3740742500  4.3740742500  0.0000000000
Pm  4.3740742500  0.0000000000  4.3740742500
Pm  -0.0000000000  4.3740742500  4.3740742500
4
scale = 1.80000
Li  0.0000000000  0.0000000000  0.0000000000
Pm  4.4990478000  4.4990478000  0.0000000000
Pm  4.4990478000  0.0000000000  4.4990478000
Pm  -0.0000000000  4.4990478000  4.4990478000
4
scale = 1.85000
Li  0.0000000000  0.0000000000  0.0000000000
Pm  4.6240213500  4.6240213500  0.0000000000
Pm  4.6240213500  0.0000000000  4.6240213500
Pm  -0.0000000000  4.6240213500  4.6240213500
4
scale = 1.90000
Li  0.0000000000  0.0000000000  0.0000000000
Pm  4.7489949000  4.7489949000  0.0000000000
Pm  4.7489949000  0.0000000000  4.7489949000
Pm  -0.0000000000  4.7489949000  4.7489949000
4
scale = 1.95000
Li  0.0000000000  0.0000000000  0.0000000000
Pm  4.8739684500  4.8739684500  0.0000000000
Pm  4.8739684500  0.0000000000  4.8739684500
Pm  -0.0000000000  4.8739684500  4.8739684500
4
scale = 2.00000
Li  0.0000000000  0.0000000000  0.0000000000
Pm  4.9989420000  4.9989420000  0.0000000000
Pm  4.9989420000  0.0000000000  4.9989420000
Pm  -0.0000000000  4.9989420000  4.9989420000
4
scale = 2.05000
Li  0.0000000000  0.0000000000  0.0000000000
Pm  5.1239155500  5.1239155500  0.0000000000
Pm  5.1239155500  0.0000000000  5.1239155500
Pm  -0.0000000000  5.1239155500  5.1239155500
4
scale = 2.10000
Li  0.0000000000  0.0000000000  0.0000000000
Pm  5.2488891000  5.2488891000  0.0000000000
Pm  5.2488891000  0.0000000000  5.2488891000
Pm  -0.0000000000  5.2488891000  5.2488891000
4
scale = 2.15000
Li  0.0000000000  0.0000000000  0.0000000000
Pm  5.3738626500  5.3738626500  0.0000000000
Pm  5.3738626500  0.0000000000  5.3738626500
Pm  -0.0000000000  5.3738626500  5.3738626500
4
scale = 2.20000
Li  0.0000000000  0.0000000000  0.0000000000
Pm  5.4988362000  5.4988362000  0.0000000000
Pm  5.4988362000  0.0000000000  5.4988362000
Pm  -0.0000000000  5.4988362000  5.4988362000
4
scale = 2.25000
Li  0.0000000000  0.0000000000  0.0000000000
Pm  5.6238097500  5.6238097500  0.0000000000
Pm  5.6238097500  0.0000000000  5.6238097500
Pm  -0.0000000000  5.6238097500  5.6238097500
4
scale = 2.30000
Li  0.0000000000  0.0000000000  0.0000000000
Pm  5.7487833000  5.7487833000  0.0000000000
Pm  5.7487833000  0.0000000000  5.7487833000
Pm  -0.0000000000  5.7487833000  5.7487833000
4
scale = 2.35000
Li  0.0000000000  0.0000000000  0.0000000000
Pm  5.8737568500  5.8737568500  0.0000000000
Pm  5.8737568500  0.0000000000  5.8737568500
Pm  -0.0000000000  5.8737568500  5.8737568500
4
scale = 2.40000
Li  0.0000000000  0.0000000000  0.0000000000
Pm  5.9987304000  5.9987304000  0.0000000000
Pm  5.9987304000  0.0000000000  5.9987304000
Pm  -0.0000000000  5.9987304000  5.9987304000
4
scale = 2.45000
Li  0.0000000000  0.0000000000  0.0000000000
Pm  6.1237039500  6.1237039500  0.0000000000
Pm  6.1237039500  0.0000000000  6.1237039500
Pm  -0.0000000000  6.1237039500  6.1237039500
