2
scale = 0.75000
Li  -0.0000007725  1.1891722725  1.5639243825
Pt  0.0000000000  0.0000000000  0.0000000000
2
scale = 0.80000
Li  -0.0000008240  1.2684504240  1.6681860080
Pt  0.0000000000  0.0000000000  0.0000000000
2
scale = 0.85000
Li  -0.0000008755  1.3477285755  1.7724476335
Pt  0.0000000000  0.0000000000  0.0000000000
2
scale = 0.90000
Li  -0.0000009270  1.4270067270  1.8767092590
Pt  0.0000000000  0.0000000000  0.0000000000
2
scale = 0.95000
Li  -0.0000009785  1.5062848785  1.9809708845
Pt  0.0000000000  0.0000000000  0.0000000000
2
scale = 1.00000
Li  -0.0000010300  1.5855630300  2.0852325100
Pt  0.0000000000  0.0000000000  0.0000000000
2
scale = 1.05000
Li  -0.0000010815  1.6648411815  2.1894941355
Pt  0.0000000000  0.0000000000  0.0000000000
2
scale = 1.10000
Li  -0.0000011330  1.7441193330  2.2937557610
Pt  0.0000000000  0.0000000000  0.0000000000
2
scale = 1.15000
Li  -0.0000011845  1.8233974845  2.3980173865
Pt  0.0000000000  0.0000000000  0.0000000000
2
scale = 1.20000
Li  -0.0000012360  1.9026756360  2.5022790120
Pt  0.0000000000  0.0000000000  0.0000000000
2
scale = 1.25000
Li  -0.0000012875  1.9819537875  2.6065406375
Pt  0.0000000000  0.0000000000  0.0000000000
2
scale = 1.30000
Li  -0.0000013390  2.0612319390  2.7108022630
Pt  0.0000000000  0.0000000000  0.0000000000
2
scale = 1.35000
Li  -0.0000013905  2.1405100905  2.8150638885
Pt  0.0000000000  0.0000000000  0.0000000000
2
scale = 1.40000
Li  -0.0000014420  2.2197882420  2.9193255140
Pt  0.0000000000  0.0000000000  0.0000000000
2
scale = 1.45000
Li  -0.0000014935  2.2990663935  3.0235871395
Pt  0.0000000000  0.0000000000  0.0000000000
2
scale = 1.50000
Li  -0.0000015450  2.3783445450  3.1278487650
Pt  0.0000000000  0.0000000000  0.0000000000
2
scale = 1.55000
Li  -0.0000015965  2.4576226965  3.2321103905
Pt  0.0000000000  0.0000000000  0.0000000000
2
scale = 1.60000
Li  -0.0000016480  2.5369008480  3.3363720160
Pt  0.0000000000  0.0000000000  0.0000000000
2
scale = 1.65000
Li  -0.0000016995  2.6161789995  3.4406336415
Pt  0.0000000000  0.0000000000  0.0000000000
2
scale = 1.70000
Li  -0.0000017510  2.6954571510  3.5448952670
Pt  0.0000000000  0.0000000000  0.0000000000
2
scale = 1.75000
Li  -0.0000018025  2.7747353025  3.6491568925
Pt  0.0000000000  0.0000000000  0.0000000000
2
scale = 1.80000
Li  -0.0000018540  2.8540134540  3.7534185180
Pt  0.0000000000  0.0000000000  0.0000000000
2
scale = 1.85000
Li  -0.0000019055  2.9332916055  3.8576801435
Pt  0.0000000000  0.0000000000  0.0000000000
2
scale = 1.90000
Li  -0.0000019570  3.0125697570  3.9619417690
Pt  0.0000000000  0.0000000000  0.0000000000
2
scale = 1.95000
Li  -0.0000020085  3.0918479085  4.0662033945
Pt  0.0000000000  0.0000000000  0.0000000000
2
scale = 2.00000
Li  -0.0000020600  3.1711260600  4.1704650200
Pt  0.0000000000  0.0000000000  0.0000000000
2
scale = 2.05000
Li  -0.0000021115  3.2504042115  4.2747266455
Pt  0.0000000000  0.0000000000  0.0000000000
2
scale = 2.10000
Li  -0.0000021630  3.3296823630  4.3789882710
Pt  0.0000000000  0.0000000000  0.0000000000
2
scale = 2.15000
Li  -0.0000022145  3.4089605145  4.4832498965
Pt  0.0000000000  0.0000000000  0.0000000000
2
scale = 2.20000
Li  -0.0000022660  3.4882386660  4.5875115220
Pt  0.0000000000  0.0000000000  0.0000000000
2
scale = 2.25000
Li  -0.0000023175  3.5675168175  4.6917731475
Pt  0.0000000000  0.0000000000  0.0000000000
2
scale = 2.30000
Li  -0.0000023690  3.6467949690  4.7960347730
Pt  0.0000000000  0.0000000000  0.0000000000
2
scale = 2.35000
Li  -0.0000024205  3.7260731205  4.9002963985
Pt  0.0000000000  0.0000000000  0.0000000000
2
scale = 2.40000
Li  -0.0000024720  3.8053512720  5.0045580240
Pt  0.0000000000  0.0000000000  0.0000000000
2
scale = 2.45000
Li  -0.0000025235  3.8846294235  5.1088196495
Pt  0.0000000000  0.0000000000  0.0000000000
