8
scale = 0.75000
Li  2.3883193725  1.6887970200  4.1366957850
Pt  0.0000000000  0.0000000000  0.0000000000
Pt  1.7912386950  0.0000000000  1.0341748650
Pt  0.0000000000  0.0000000000  2.0683468800
Pt  2.3883193725  1.6887970200  2.0683489125
Pt  0.5970806700  1.6887970200  3.1025209200
Pt  0.5970806700  1.6887970200  1.0341740400
Pt  1.7912386950  0.0000000000  3.1025217450
8
scale = 0.80000
Li  2.5475406640  1.8013834880  4.4124755040
Pt  0.0000000000  0.0000000000  0.0000000000
Pt  1.9106546080  0.0000000000  1.1031198560
Pt  0.0000000000  0.0000000000  2.2062366720
Pt  2.5475406640  1.8013834880  2.2062388400
Pt  0.6368860480  1.8013834880  3.3093556480
Pt  0.6368860480  1.8013834880  1.1031189760
Pt  1.9106546080  0.0000000000  3.3093565280
8
scale = 0.85000
Li  2.7067619555  1.9139699560  4.6882552230
Pt  0.0000000000  0.0000000000  0.0000000000
Pt  2.0300705210  0.0000000000  1.1720648470
Pt  0.0000000000  0.0000000000  2.3441264640
Pt  2.7067619555  1.9139699560  2.3441287675
Pt  0.6766914260  1.9139699560  3.5161903760
Pt  0.6766914260  1.9139699560  1.1720639120
Pt  2.0300705210  0.0000000000  3.5161913110
8
scale = 0.90000
Li  2.8659832470  2.0265564240  4.9640349420
Pt  0.0000000000  0.0000000000  0.0000000000
Pt  2.1494864340  0.0000000000  1.2410098380
Pt  0.0000000000  0.0000000000  2.4820162560
Pt  2.8659832470  2.0265564240  2.4820186950
Pt  0.7164968040  2.0265564240  3.7230251040
Pt  0.7164968040  2.0265564240  1.2410088480
Pt  2.1494864340  0.0000000000  3.7230260940
8
scale = 0.95000
Li  3.0252045385  2.1391428920  5.2398146610
Pt  0.0000000000  0.0000000000  0.0000000000
Pt  2.2689023470  0.0000000000  1.3099548290
Pt  0.0000000000  0.0000000000  2.6199060480
Pt  3.0252045385  2.1391428920  2.6199086225
Pt  0.7563021820  2.1391428920  3.9298598320
Pt  0.7563021820  2.1391428920  1.3099537840
Pt  2.2689023470  0.0000000000  3.9298608770
8
scale = 1.00000
Li  3.1844258300  2.2517293600  5.5155943800
Pt  0.0000000000  0.0000000000  0.0000000000
Pt  2.3883182600  0.0000000000  1.3788998200
Pt  0.0000000000  0.0000000000  2.7577958400
Pt  3.1844258300  2.2517293600  2.7577985500
Pt  0.7961075600  2.2517293600  4.1366945600
Pt  0.7961075600  2.2517293600  1.3788987200
Pt  2.3883182600  0.0000000000  4.1366956600
8
scale = 1.05000
Li  3.3436471215  2.3643158280  5.7913740990
Pt  0.0000000000  0.0000000000  0.0000000000
Pt  2.5077341730  0.0000000000  1.4478448110
Pt  0.0000000000  0.0000000000  2.8956856320
Pt  3.3436471215  2.3643158280  2.8956884775
Pt  0.8359129380  2.3643158280  4.3435292880
Pt  0.8359129380  2.3643158280  1.4478436560
Pt  2.5077341730  0.0000000000  4.3435304430
8
scale = 1.10000
Li  3.5028684130  2.4769022960  6.0671538180
Pt  0.0000000000  0.0000000000  0.0000000000
Pt  2.6271500860  0.0000000000  1.5167898020
Pt  0.0000000000  0.0000000000  3.0335754240
Pt  3.5028684130  2.4769022960  3.0335784050
Pt  0.8757183160  2.4769022960  4.5503640160
Pt  0.8757183160  2.4769022960  1.5167885920
Pt  2.6271500860  0.0000000000  4.5503652260
8
scale = 1.15000
Li  3.6620897045  2.5894887640  6.3429335370
Pt  0.0000000000  0.0000000000  0.0000000000
Pt  2.7465659990  0.0000000000  1.5857347930
Pt  0.0000000000  0.0000000000  3.1714652160
Pt  3.6620897045  2.5894887640  3.1714683325
Pt  0.9155236940  2.5894887640  4.7571987440
Pt  0.9155236940  2.5894887640  1.5857335280
Pt  2.7465659990  0.0000000000  4.7572000090
8
scale = 1.20000
Li  3.8213109960  2.7020752320  6.6187132560
Pt  0.0000000000  0.0000000000  0.0000000000
Pt  2.8659819120  0.0000000000  1.6546797840
Pt  0.0000000000  0.0000000000  3.3093550080
Pt  3.8213109960  2.7020752320  3.3093582600
Pt  0.9553290720  2.7020752320  4.9640334720
Pt  0.9553290720  2.7020752320  1.6546784640
Pt  2.8659819120  0.0000000000  4.9640347920
8
scale = 1.25000
Li  3.9805322875  2.8146617000  6.8944929750
Pt  0.0000000000  0.0000000000  0.0000000000
Pt  2.9853978250  0.0000000000  1.7236247750
Pt  0.0000000000  0.0000000000  3.4472448000
Pt  3.9805322875  2.8146617000  3.4472481875
Pt  0.9951344500  2.8146617000  5.1708682000
Pt  0.9951344500  2.8146617000  1.7236234000
Pt  2.9853978250  0.0000000000  5.1708695750
8
scale = 1.30000
Li  4.1397535790  2.9272481680  7.1702726940
Pt  0.0000000000  0.0000000000  0.0000000000
Pt  3.1048137380  0.0000000000  1.7925697660
Pt  0.0000000000  0.0000000000  3.5851345920
Pt  4.1397535790  2.9272481680  3.5851381150
Pt  1.0349398280  2.9272481680  5.3777029280
Pt  1.0349398280  2.9272481680  1.7925683360
Pt  3.1048137380  0.0000000000  5.3777043580
8
scale = 1.35000
Li  4.2989748705  3.0398346360  7.4460524130
Pt  0.0000000000  0.0000000000  0.0000000000
Pt  3.2242296510  0.0000000000  1.8615147570
Pt  0.0000000000  0.0000000000  3.7230243840
Pt  4.2989748705  3.0398346360  3.7230280425
Pt  1.0747452060  3.0398346360  5.5845376560
Pt  1.0747452060  3.0398346360  1.8615132720
Pt  3.2242296510  0.0000000000  5.5845391410
8
scale = 1.40000
Li  4.4581961620  3.1524211040  7.7218321320
Pt  0.0000000000  0.0000000000  0.0000000000
Pt  3.3436455640  0.0000000000  1.9304597480
Pt  0.0000000000  0.0000000000  3.8609141760
Pt  4.4581961620  3.1524211040  3.8609179700
Pt  1.1145505840  3.1524211040  5.7913723840
Pt  1.1145505840  3.1524211040  1.9304582080
Pt  3.3436455640  0.0000000000  5.7913739240
8
scale = 1.45000
Li  4.6174174535  3.2650075720  7.9976118510
Pt  0.0000000000  0.0000000000  0.0000000000
Pt  3.4630614770  0.0000000000  1.9994047390
Pt  0.0000000000  0.0000000000  3.9988039680
Pt  4.6174174535  3.2650075720  3.9988078975
Pt  1.1543559620  3.2650075720  5.9982071120
Pt  1.1543559620  3.2650075720  1.9994031440
Pt  3.4630614770  0.0000000000  5.9982087070
8
scale = 1.50000
Li  4.7766387450  3.3775940400  8.2733915700
Pt  0.0000000000  0.0000000000  0.0000000000
Pt  3.5824773900  0.0000000000  2.0683497300
Pt  0.0000000000  0.0000000000  4.1366937600
Pt  4.7766387450  3.3775940400  4.1366978250
Pt  1.1941613400  3.3775940400  6.2050418400
Pt  1.1941613400  3.3775940400  2.0683480800
Pt  3.5824773900  0.0000000000  6.2050434900
8
scale = 1.55000
Li  4.9358600365  3.4901805080  8.5491712890
Pt  0.0000000000  0.0000000000  0.0000000000
Pt  3.7018933030  0.0000000000  2.1372947210
Pt  0.0000000000  0.0000000000  4.2745835520
Pt  4.9358600365  3.4901805080  4.2745877525
Pt  1.2339667180  3.4901805080  6.4118765680
Pt  1.2339667180  3.4901805080  2.1372930160
Pt  3.7018933030  0.0000000000  6.4118782730
8
scale = 1.60000
Li  5.0950813280  3.6027669760  8.8249510080
Pt  0.0000000000  0.0000000000  0.0000000000
Pt  3.8213092160  0.0000000000  2.2062397120
Pt  0.0000000000  0.0000000000  4.4124733440
Pt  5.0950813280  3.6027669760  4.4124776800
Pt  1.2737720960  3.6027669760  6.6187112960
Pt  1.2737720960  3.6027669760  2.2062379520
Pt  3.8213092160  0.0000000000  6.6187130560
8
scale = 1.65000
Li  5.2543026195  3.7153534440  9.1007307270
Pt  0.0000000000  0.0000000000  0.0000000000
Pt  3.9407251290  0.0000000000  2.2751847030
Pt  0.0000000000  0.0000000000  4.5503631360
Pt  5.2543026195  3.7153534440  4.5503676075
Pt  1.3135774740  3.7153534440  6.8255460240
Pt  1.3135774740  3.7153534440  2.2751828880
Pt  3.9407251290  0.0000000000  6.8255478390
8
scale = 1.70000
Li  5.4135239110  3.8279399120  9.3765104460
Pt  0.0000000000  0.0000000000  0.0000000000
Pt  4.0601410420  0.0000000000  2.3441296940
Pt  0.0000000000  0.0000000000  4.6882529280
Pt  5.4135239110  3.8279399120  4.6882575350
Pt  1.3533828520  3.8279399120  7.0323807520
Pt  1.3533828520  3.8279399120  2.3441278240
Pt  4.0601410420  0.0000000000  7.0323826220
8
scale = 1.75000
Li  5.5727452025  3.9405263800  9.6522901650
Pt  0.0000000000  0.0000000000  0.0000000000
Pt  4.1795569550  0.0000000000  2.4130746850
Pt  0.0000000000  0.0000000000  4.8261427200
Pt  5.5727452025  3.9405263800  4.8261474625
Pt  1.3931882300  3.9405263800  7.2392154800
Pt  1.3931882300  3.9405263800  2.4130727600
Pt  4.1795569550  0.0000000000  7.2392174050
8
scale = 1.80000
Li  5.7319664940  4.0531128480  9.9280698840
Pt  0.0000000000  0.0000000000  0.0000000000
Pt  4.2989728680  0.0000000000  2.4820196760
Pt  0.0000000000  0.0000000000  4.9640325120
Pt  5.7319664940  4.0531128480  4.9640373900
Pt  1.4329936080  4.0531128480  7.4460502080
Pt  1.4329936080  4.0531128480  2.4820176960
Pt  4.2989728680  0.0000000000  7.4460521880
8
scale = 1.85000
Li  5.8911877855  4.1656993160  10.2038496030
Pt  0.0000000000  0.0000000000  0.0000000000
Pt  4.4183887810  0.0000000000  2.5509646670
Pt  0.0000000000  0.0000000000  5.1019223040
Pt  5.8911877855  4.1656993160  5.1019273175
Pt  1.4727989860  4.1656993160  7.6528849360
Pt  1.4727989860  4.1656993160  2.5509626320
Pt  4.4183887810  0.0000000000  7.6528869710
8
scale = 1.90000
Li  6.0504090770  4.2782857840  10.4796293220
Pt  0.0000000000  0.0000000000  0.0000000000
Pt  4.5378046940  0.0000000000  2.6199096580
Pt  0.0000000000  0.0000000000  5.2398120960
Pt  6.0504090770  4.2782857840  5.2398172450
Pt  1.5126043640  4.2782857840  7.8597196640
Pt  1.5126043640  4.2782857840  2.6199075680
Pt  4.5378046940  0.0000000000  7.8597217540
8
scale = 1.95000
Li  6.2096303685  4.3908722520  10.7554090410
Pt  0.0000000000  0.0000000000  0.0000000000
Pt  4.6572206070  0.0000000000  2.6888546490
Pt  0.0000000000  0.0000000000  5.3777018880
Pt  6.2096303685  4.3908722520  5.3777071725
Pt  1.5524097420  4.3908722520  8.0665543920
Pt  1.5524097420  4.3908722520  2.6888525040
Pt  4.6572206070  0.0000000000  8.0665565370
8
scale = 2.00000
Li  6.3688516600  4.5034587200  11.0311887600
Pt  0.0000000000  0.0000000000  0.0000000000
Pt  4.7766365200  0.0000000000  2.7577996400
Pt  0.0000000000  0.0000000000  5.5155916800
Pt  6.3688516600  4.5034587200  5.5155971000
Pt  1.5922151200  4.5034587200  8.2733891200
Pt  1.5922151200  4.5034587200  2.7577974400
Pt  4.7766365200  0.0000000000  8.2733913200
8
scale = 2.05000
Li  6.5280729515  4.6160451880  11.3069684790
Pt  0.0000000000  0.0000000000  0.0000000000
Pt  4.8960524330  0.0000000000  2.8267446310
Pt  0.0000000000  0.0000000000  5.6534814720
Pt  6.5280729515  4.6160451880  5.6534870275
Pt  1.6320204980  4.6160451880  8.4802238480
Pt  1.6320204980  4.6160451880  2.8267423760
Pt  4.8960524330  0.0000000000  8.4802261030
8
scale = 2.10000
Li  6.6872942430  4.7286316560  11.5827481980
Pt  0.0000000000  0.0000000000  0.0000000000
Pt  5.0154683460  0.0000000000  2.8956896220
Pt  0.0000000000  0.0000000000  5.7913712640
Pt  6.6872942430  4.7286316560  5.7913769550
Pt  1.6718258760  4.7286316560  8.6870585760
Pt  1.6718258760  4.7286316560  2.8956873120
Pt  5.0154683460  0.0000000000  8.6870608860
8
scale = 2.15000
Li  6.8465155345  4.8412181240  11.8585279170
Pt  0.0000000000  0.0000000000  0.0000000000
Pt  5.1348842590  0.0000000000  2.9646346130
Pt  0.0000000000  0.0000000000  5.9292610560
Pt  6.8465155345  4.8412181240  5.9292668825
Pt  1.7116312540  4.8412181240  8.8938933040
Pt  1.7116312540  4.8412181240  2.9646322480
Pt  5.1348842590  0.0000000000  8.8938956690
8
scale = 2.20000
Li  7.0057368260  4.9538045920  12.1343076360
Pt  0.0000000000  0.0000000000  0.0000000000
Pt  5.2543001720  0.0000000000  3.0335796040
Pt  0.0000000000  0.0000000000  6.0671508480
Pt  7.0057368260  4.9538045920  6.0671568100
Pt  1.7514366320  4.9538045920  9.1007280320
Pt  1.7514366320  4.9538045920  3.0335771840
Pt  5.2543001720  0.0000000000  9.1007304520
8
scale = 2.25000
Li  7.1649581175  5.0663910600  12.4100873550
Pt  0.0000000000  0.0000000000  0.0000000000
Pt  5.3737160850  0.0000000000  3.1025245950
Pt  0.0000000000  0.0000000000  6.2050406400
Pt  7.1649581175  5.0663910600  6.2050467375
Pt  1.7912420100  5.0663910600  9.3075627600
Pt  1.7912420100  5.0663910600  3.1025221200
Pt  5.3737160850  0.0000000000  9.3075652350
8
scale = 2.30000
Li  7.3241794090  5.1789775280  12.6858670740
Pt  0.0000000000  0.0000000000  0.0000000000
Pt  5.4931319980  0.0000000000  3.1714695860
Pt  0.0000000000  0.0000000000  6.3429304320
Pt  7.3241794090  5.1789775280  6.3429366650
Pt  1.8310473880  5.1789775280  9.5143974880
Pt  1.8310473880  5.1789775280  3.1714670560
Pt  5.4931319980  0.0000000000  9.5144000180
8
scale = 2.35000
Li  7.4834007005  5.2915639960  12.9616467930
Pt  0.0000000000  0.0000000000  0.0000000000
Pt  5.6125479110  0.0000000000  3.2404145770
Pt  0.0000000000  0.0000000000  6.4808202240
Pt  7.4834007005  5.2915639960  6.4808265925
Pt  1.8708527660  5.2915639960  9.7212322160
Pt  1.8708527660  5.2915639960  3.2404119920
Pt  5.6125479110  0.0000000000  9.7212348010
8
scale = 2.40000
Li  7.6426219920  5.4041504640  13.2374265120
Pt  0.0000000000  0.0000000000  0.0000000000
Pt  5.7319638240  0.0000000000  3.3093595680
Pt  0.0000000000  0.0000000000  6.6187100160
Pt  7.6426219920  5.4041504640  6.6187165200
Pt  1.9106581440  5.4041504640  9.9280669440
Pt  1.9106581440  5.4041504640  3.3093569280
Pt  5.7319638240  0.0000000000  9.9280695840
8
scale = 2.45000
Li  7.8018432835  5.5167369320  13.5132062310
Pt  0.0000000000  0.0000000000  0.0000000000
Pt  5.8513797370  0.0000000000  3.3783045590
Pt  0.0000000000  0.0000000000  6.7565998080
Pt  7.8018432835  5.5167369320  6.7566064475
Pt  1.9504635220  5.5167369320  10.1349016720
Pt  1.9504635220  5.5167369320  3.3783018640
Pt  5.8513797370  0.0000000000  10.1349043670
