4
scale = 0.75000
Li  -0.0054462975  0.0383204550  0.0199875150
Rh  0.0619979250  2.8762781175  3.5675481225
Rh  1.2586205850  1.3779785175  2.9711030625
Rh  0.7441195275  1.5374342625  1.0642097400
4
scale = 0.80000
Li  -0.0058093840  0.0408751520  0.0213200160
Rh  0.0661311200  3.0680299920  3.8053846640
Rh  1.3425286240  1.4698437520  3.1691766000
Rh  0.7937274960  1.6399298800  1.1351570560
4
scale = 0.85000
Li  -0.0061724705  0.0434298490  0.0226525170
Rh  0.0702643150  3.2597818665  4.0432212055
Rh  1.4264366630  1.5617089865  3.3672501375
Rh  0.8433354645  1.7424254975  1.2061043720
4
scale = 0.90000
Li  -0.0065355570  0.0459845460  0.0239850180
Rh  0.0743975100  3.4515337410  4.2810577470
Rh  1.5103447020  1.6535742210  3.5653236750
Rh  0.8929434330  1.8449211150  1.2770516880
4
scale = 0.95000
Li  -0.0068986435  0.0485392430  0.0253175190
Rh  0.0785307050  3.6432856155  4.5188942885
Rh  1.5942527410  1.7454394555  3.7633972125
Rh  0.9425514015  1.9474167325  1.3479990040
4
scale = 1.00000
Li  -0.0072617300  0.0510939400  0.0266500200
Rh  0.0826639000  3.8350374900  4.7567308300
Rh  1.6781607800  1.8373046900  3.9614707500
Rh  0.9921593700  2.0499123500  1.4189463200
4
scale = 1.05000
Li  -0.0076248165  0.0536486370  0.0279825210
Rh  0.0867970950  4.0267893645  4.9945673715
Rh  1.7620688190  1.9291699245  4.1595442875
Rh  1.0417673385  2.1524079675  1.4898936360
4
scale = 1.10000
Li  -0.0079879030  0.0562033340  0.0293150220
Rh  0.0909302900  4.2185412390  5.2324039130
Rh  1.8459768580  2.0210351590  4.3576178250
Rh  1.0913753070  2.2549035850  1.5608409520
4
scale = 1.15000
Li  -0.0083509895  0.0587580310  0.0306475230
Rh  0.0950634850  4.4102931135  5.4702404545
Rh  1.9298848970  2.1129003935  4.5556913625
Rh  1.1409832755  2.3573992025  1.6317882680
4
scale = 1.20000
Li  -0.0087140760  0.0613127280  0.0319800240
Rh  0.0991966800  4.6020449880  5.7080769960
Rh  2.0137929360  2.2047656280  4.7537649000
Rh  1.1905912440  2.4598948200  1.7027355840
4
scale = 1.25000
Li  -0.0090771625  0.0638674250  0.0333125250
Rh  0.1033298750  4.7937968625  5.9459135375
Rh  2.0977009750  2.2966308625  4.9518384375
Rh  1.2401992125  2.5623904375  1.7736829000
4
scale = 1.30000
Li  -0.0094402490  0.0664221220  0.0346450260
Rh  0.1074630700  4.9855487370  6.1837500790
Rh  2.1816090140  2.3884960970  5.1499119750
Rh  1.2898071810  2.6648860550  1.8446302160
4
scale = 1.35000
Li  -0.0098033355  0.0689768190  0.0359775270
Rh  0.1115962650  5.1773006115  6.4215866205
Rh  2.2655170530  2.4803613315  5.3479855125
Rh  1.3394151495  2.7673816725  1.9155775320
4
scale = 1.40000
Li  -0.0101664220  0.0715315160  0.0373100280
Rh  0.1157294600  5.3690524860  6.6594231620
Rh  2.3494250920  2.5722265660  5.5460590500
Rh  1.3890231180  2.8698772900  1.9865248480
4
scale = 1.45000
Li  -0.0105295085  0.0740862130  0.0386425290
Rh  0.1198626550  5.5608043605  6.8972597035
Rh  2.4333331310  2.6640918005  5.7441325875
Rh  1.4386310865  2.9723729075  2.0574721640
4
scale = 1.50000
Li  -0.0108925950  0.0766409100  0.0399750300
Rh  0.1239958500  5.7525562350  7.1350962450
Rh  2.5172411700  2.7559570350  5.9422061250
Rh  1.4882390550  3.0748685250  2.1284194800
4
scale = 1.55000
Li  -0.0112556815  0.0791956070  0.0413075310
Rh  0.1281290450  5.9443081095  7.3729327865
Rh  2.6011492090  2.8478222695  6.1402796625
Rh  1.5378470235  3.1773641425  2.1993667960
4
scale = 1.60000
Li  -0.0116187680  0.0817503040  0.0426400320
Rh  0.1322622400  6.1360599840  7.6107693280
Rh  2.6850572480  2.9396875040  6.3383532000
Rh  1.5874549920  3.2798597600  2.2703141120
4
scale = 1.65000
Li  -0.0119818545  0.0843050010  0.0439725330
Rh  0.1363954350  6.3278118585  7.8486058695
Rh  2.7689652870  3.0315527385  6.5364267375
Rh  1.6370629605  3.3823553775  2.3412614280
4
scale = 1.70000
Li  -0.0123449410  0.0868596980  0.0453050340
Rh  0.1405286300  6.5195637330  8.0864424110
Rh  2.8528733260  3.1234179730  6.7345002750
Rh  1.6866709290  3.4848509950  2.4122087440
4
scale = 1.75000
Li  -0.0127080275  0.0894143950  0.0466375350
Rh  0.1446618250  6.7113156075  8.3242789525
Rh  2.9367813650  3.2152832075  6.9325738125
Rh  1.7362788975  3.5873466125  2.4831560600
4
scale = 1.80000
Li  -0.0130711140  0.0919690920  0.0479700360
Rh  0.1487950200  6.9030674820  8.5621154940
Rh  3.0206894040  3.3071484420  7.1306473500
Rh  1.7858868660  3.6898422300  2.5541033760
4
scale = 1.85000
Li  -0.0134342005  0.0945237890  0.0493025370
Rh  0.1529282150  7.0948193565  8.7999520355
Rh  3.1045974430  3.3990136765  7.3287208875
Rh  1.8354948345  3.7923378475  2.6250506920
4
scale = 1.90000
Li  -0.0137972870  0.0970784860  0.0506350380
Rh  0.1570614100  7.2865712310  9.0377885770
Rh  3.1885054820  3.4908789110  7.5267944250
Rh  1.8851028030  3.8948334650  2.6959980080
4
scale = 1.95000
Li  -0.0141603735  0.0996331830  0.0519675390
Rh  0.1611946050  7.4783231055  9.2756251185
Rh  3.2724135210  3.5827441455  7.7248679625
Rh  1.9347107715  3.9973290825  2.7669453240
4
scale = 2.00000
Li  -0.0145234600  0.1021878800  0.0533000400
Rh  0.1653278000  7.6700749800  9.5134616600
Rh  3.3563215600  3.6746093800  7.9229415000
Rh  1.9843187400  4.0998247000  2.8378926400
4
scale = 2.05000
Li  -0.0148865465  0.1047425770  0.0546325410
Rh  0.1694609950  7.8618268545  9.7512982015
Rh  3.4402295990  3.7664746145  8.1210150375
Rh  2.0339267085  4.2023203175  2.9088399560
4
scale = 2.10000
Li  -0.0152496330  0.1072972740  0.0559650420
Rh  0.1735941900  8.0535787290  9.9891347430
Rh  3.5241376380  3.8583398490  8.3190885750
Rh  2.0835346770  4.3048159350  2.9797872720
4
scale = 2.15000
Li  -0.0156127195  0.1098519710  0.0572975430
Rh  0.1777273850  8.2453306035  10.2269712845
Rh  3.6080456770  3.9502050835  8.5171621125
Rh  2.1331426455  4.4073115525  3.0507345880
4
scale = 2.20000
Li  -0.0159758060  0.1124066680  0.0586300440
Rh  0.1818605800  8.4370824780  10.4648078260
Rh  3.6919537160  4.0420703180  8.7152356500
Rh  2.1827506140  4.5098071700  3.1216819040
4
scale = 2.25000
Li  -0.0163388925  0.1149613650  0.0599625450
Rh  0.1859937750  8.6288343525  10.7026443675
Rh  3.7758617550  4.1339355525  8.9133091875
Rh  2.2323585825  4.6123027875  3.1926292200
4
scale = 2.30000
Li  -0.0167019790  0.1175160620  0.0612950460
Rh  0.1901269700  8.8205862270  10.9404809090
Rh  3.8597697940  4.2258007870  9.1113827250
Rh  2.2819665510  4.7147984050  3.2635765360
4
scale = 2.35000
Li  -0.0170650655  0.1200707590  0.0626275470
Rh  0.1942601650  9.0123381015  11.1783174505
Rh  3.9436778330  4.3176660215  9.3094562625
Rh  2.3315745195  4.8172940225  3.3345238520
4
scale = 2.40000
Li  -0.0174281520  0.1226254560  0.0639600480
Rh  0.1983933600  9.2040899760  11.4161539920
Rh  4.0275858720  4.4095312560  9.5075298000
Rh  2.3811824880  4.9197896400  3.4054711680
4
scale = 2.45000
Li  -0.0177912385  0.1251801530  0.0652925490
Rh  0.2025265550  9.3958418505  11.6539905335
Rh  4.1114939110  4.5013964905  9.7056033375
Rh  2.4307904565  5.0222852575  3.4764184840
