10
scale = 0.75000
Li  5.6725054875  5.5425475125  5.2620490725
Li  4.4477368800  4.5392896050  4.0554526050
S   6.2226813975  4.1789157525  4.2898070250
S   5.7914584425  3.6839317800  5.6756468700
S   4.7900416125  2.5262596575  5.5110771900
S   3.5061732600  3.0120450900  4.8134271150
S   2.5891915425  3.6858733500  5.8990635975
S   2.2321852350  5.0949626475  5.3941365075
S   3.3029442450  6.1053302100  5.7694453725
S   4.2563614725  6.2358709350  4.5548576100
10
scale = 0.80000
Li  6.0506725200  5.9120506800  5.6128523440
Li  4.7442526720  4.8419089120  4.3258161120
S   6.6375268240  4.4575101360  4.5757941600
S   6.1775556720  3.9295272320  6.0540233280
S   5.1093777200  2.6946769680  5.8784823360
S   3.7399181440  3.2128480960  5.1343222560
S   2.7618043120  3.9315982400  6.2923345040
S   2.3809975840  5.4346268240  5.7537456080
S   3.5231405280  6.5123522240  6.1540750640
S   4.5401189040  6.6515956640  4.8585147840
10
scale = 0.85000
Li  6.4288395525  6.2815538475  5.9636556155
Li  5.0407684640  5.1445282190  4.5961796190
S   7.0523722505  4.7361045195  4.8617812950
S   6.5636529015  4.1751226840  6.4323997860
S   5.4287138275  2.8630942785  6.2458874820
S   3.9736630280  3.4136511020  5.4552173970
S   2.9344170815  4.1773231300  6.6856054105
S   2.5298099330  5.7742910005  6.1133547085
S   3.7433368110  6.9193742380  6.5387047555
S   4.8238763355  7.0673203930  5.1621719580
10
scale = 0.90000
Li  6.8070065850  6.6510570150  6.3144588870
Li  5.3372842560  5.4471475260  4.8665431260
S   7.4672176770  5.0146989030  5.1477684300
S   6.9497501310  4.4207181360  6.8107762440
S   5.7480499350  3.0315115890  6.6132926280
S   4.2074079120  3.6144541080  5.7761125380
S   3.1070298510  4.4230480200  7.0788763170
S   2.6786222820  6.1139551770  6.4729638090
S   3.9635330940  7.3263962520  6.9233344470
S   5.1076337670  7.4830451220  5.4658291320
10
scale = 0.95000
Li  7.1851736175  7.0205601825  6.6652621585
Li  5.6338000480  5.7497668330  5.1369066330
S   7.8820631035  5.2932932865  5.4337555650
S   7.3358473605  4.6663135880  7.1891527020
S   6.0673860425  3.1999288995  6.9806977740
S   4.4411527960  3.8152571140  6.0970076790
S   3.2796426205  4.6687729100  7.4721472235
S   2.8274346310  6.4536193535  6.8325729095
S   4.1837293770  7.7334182660  7.3079641385
S   5.3913911985  7.8987698510  5.7694863060
10
scale = 1.00000
Li  7.5633406500  7.3900633500  7.0160654300
Li  5.9303158400  6.0523861400  5.4072701400
S   8.2969085300  5.5718876700  5.7197427000
S   7.7219445900  4.9119090400  7.5675291600
S   6.3867221500  3.3683462100  7.3481029200
S   4.6748976800  4.0160601200  6.4179028200
S   3.4522553900  4.9144978000  7.8654181300
S   2.9762469800  6.7932835300  7.1921820100
S   4.4039256600  8.1404402800  7.6925938300
S   5.6751486300  8.3144945800  6.0731434800
10
scale = 1.05000
Li  7.9415076825  7.7595665175  7.3668687015
Li  6.2268316320  6.3550054470  5.6776336470
S   8.7117539565  5.8504820535  6.0057298350
S   8.1080418195  5.1575044920  7.9459056180
S   6.7060582575  3.5367635205  7.7155080660
S   4.9086425640  4.2168631260  6.7387979610
S   3.6248681595  5.1602226900  8.2586890365
S   3.1250593290  7.1329477065  7.5517911105
S   4.6241219430  8.5474622940  8.0772235215
S   5.9589060615  8.7302193090  6.3768006540
10
scale = 1.10000
Li  8.3196747150  8.1290696850  7.7176719730
Li  6.5233474240  6.6576247540  5.9479971540
S   9.1265993830  6.1290764370  6.2917169700
S   8.4941390490  5.4030999440  8.3242820760
S   7.0253943650  3.7051808310  8.0829132120
S   5.1423874480  4.4176661320  7.0596931020
S   3.7974809290  5.4059475800  8.6519599430
S   3.2738716780  7.4726118830  7.9114002110
S   4.8443182260  8.9544843080  8.4618532130
S   6.2426634930  9.1459440380  6.6804578280
10
scale = 1.15000
Li  8.6978417475  8.4985728525  8.0684752445
Li  6.8198632160  6.9602440610  6.2183606610
S   9.5414448095  6.4076708205  6.5777041050
S   8.8802362785  5.6486953960  8.7026585340
S   7.3447304725  3.8735981415  8.4503183580
S   5.3761323320  4.6184691380  7.3805882430
S   3.9700936985  5.6516724700  9.0452308495
S   3.4226840270  7.8122760595  8.2710093115
S   5.0645145090  9.3615063220  8.8464829045
S   6.5264209245  9.5616687670  6.9841150020
10
scale = 1.20000
Li  9.0760087800  8.8680760200  8.4192785160
Li  7.1163790080  7.2628633680  6.4887241680
S   9.9562902360  6.6862652040  6.8636912400
S   9.2663335080  5.8942908480  9.0810349920
S   7.6640665800  4.0420154520  8.8177235040
S   5.6098772160  4.8192721440  7.7014833840
S   4.1427064680  5.8973973600  9.4385017560
S   3.5714963760  8.1519402360  8.6306184120
S   5.2847107920  9.7685283360  9.2311125960
S   6.8101783560  9.9773934960  7.2877721760
10
scale = 1.25000
Li  9.4541758125  9.2375791875  8.7700817875
Li  7.4128948000  7.5654826750  6.7590876750
S   10.3711356625  6.9648595875  7.1496783750
S   9.6524307375  6.1398863000  9.4594114500
S   7.9834026875  4.2104327625  9.1851286500
S   5.8436221000  5.0200751500  8.0223785250
S   4.3153192375  6.1431222500  9.8317726625
S   3.7203087250  8.4916044125  8.9902275125
S   5.5049070750  10.1755503500  9.6157422875
S   7.0939357875  10.3931182250  7.5914293500
10
scale = 1.30000
Li  9.8323428450  9.6070823550  9.1208850590
Li  7.7094105920  7.8681019820  7.0294511820
S   10.7859810890  7.2434539710  7.4356655100
S   10.0385279670  6.3854817520  9.8377879080
S   8.3027387950  4.3788500730  9.5525337960
S   6.0773669840  5.2208781560  8.3432736660
S   4.4879320070  6.3888471400  10.2250435690
S   3.8691210740  8.8312685890  9.3498366130
S   5.7251033580  10.5825723640  10.0003719790
S   7.3776932190  10.8088429540  7.8950865240
10
scale = 1.35000
Li  10.2105098775  9.9765855225  9.4716883305
Li  8.0059263840  8.1707212890  7.2998146890
S   11.2008265155  7.5220483545  7.7216526450
S   10.4246251965  6.6310772040  10.2161643660
S   8.6220749025  4.5472673835  9.9199389420
S   6.3111118680  5.4216811620  8.6641688070
S   4.6605447765  6.6345720300  10.6183144755
S   4.0179334230  9.1709327655  9.7094457135
S   5.9452996410  10.9895943780  10.3850016705
S   7.6614506505  11.2245676830  8.1987436980
10
scale = 1.40000
Li  10.5886769100  10.3460886900  9.8224916020
Li  8.3024421760  8.4733405960  7.5701781960
S   11.6156719420  7.8006427380  8.0076397800
S   10.8107224260  6.8766726560  10.5945408240
S   8.9414110100  4.7156846940  10.2873440880
S   6.5448567520  5.6224841680  8.9850639480
S   4.8331575460  6.8802969200  11.0115853820
S   4.1667457720  9.5105969420  10.0690548140
S   6.1654959240  11.3966163920  10.7696313620
S   7.9452080820  11.6402924120  8.5024008720
10
scale = 1.45000
Li  10.9668439425  10.7155918575  10.1732948735
Li  8.5989579680  8.7759599030  7.8405417030
S   12.0305173685  8.0792371215  8.2936269150
S   11.1968196555  7.1222681080  10.9729172820
S   9.2607471175  4.8841020045  10.6547492340
S   6.7786016360  5.8232871740  9.3059590890
S   5.0057703155  7.1260218100  11.4048562885
S   4.3155581210  9.8502611185  10.4286639145
S   6.3856922070  11.8036384060  11.1542610535
S   8.2289655135  12.0560171410  8.8060580460
10
scale = 1.50000
Li  11.3450109750  11.0850950250  10.5240981450
Li  8.8954737600  9.0785792100  8.1109052100
S   12.4453627950  8.3578315050  8.5796140500
S   11.5829168850  7.3678635600  11.3512937400
S   9.5800832250  5.0525193150  11.0221543800
S   7.0123465200  6.0240901800  9.6268542300
S   5.1783830850  7.3717467000  11.7981271950
S   4.4643704700  10.1899252950  10.7882730150
S   6.6058884900  12.2106604200  11.5388907450
S   8.5127229450  12.4717418700  9.1097152200
10
scale = 1.55000
Li  11.7231780075  11.4545981925  10.8749014165
Li  9.1919895520  9.3811985170  8.3812687170
S   12.8602082215  8.6364258885  8.8656011850
S   11.9690141145  7.6134590120  11.7296701980
S   9.8994193325  5.2209366255  11.3895595260
S   7.2460914040  6.2248931860  9.9477493710
S   5.3509958545  7.6174715900  12.1913981015
S   4.6131828190  10.5295894715  11.1478821155
S   6.8260847730  12.6176824340  11.9235204365
S   8.7964803765  12.8874665990  9.4133723940
10
scale = 1.60000
Li  12.1013450400  11.8241013600  11.2257046880
Li  9.4885053440  9.6838178240  8.6516322240
S   13.2750536480  8.9150202720  9.1515883200
S   12.3551113440  7.8590544640  12.1080466560
S   10.2187554400  5.3893539360  11.7569646720
S   7.4798362880  6.4256961920  10.2686445120
S   5.5236086240  7.8631964800  12.5846690080
S   4.7619951680  10.8692536480  11.5074912160
S   7.0462810560  13.0247044480  12.3081501280
S   9.0802378080  13.3031913280  9.7170295680
10
scale = 1.65000
Li  12.4795120725  12.1936045275  11.5765079595
Li  9.7850211360  9.9864371310  8.9219957310
S   13.6898990745  9.1936146555  9.4375754550
S   12.7412085735  8.1046499160  12.4864231140
S   10.5380915475  5.5577712465  12.1243698180
S   7.7135811720  6.6264991980  10.5895396530
S   5.6962213935  8.1089213700  12.9779399145
S   4.9108075170  11.2089178245  11.8671003165
S   7.2664773390  13.4317264620  12.6927798195
S   9.3639952395  13.7189160570  10.0206867420
10
scale = 1.70000
Li  12.8576791050  12.5631076950  11.9273112310
Li  10.0815369280  10.2890564380  9.1923592380
S   14.1047445010  9.4722090390  9.7235625900
S   13.1273058030  8.3502453680  12.8647995720
S   10.8574276550  5.7261885570  12.4917749640
S   7.9473260560  6.8273022040  10.9104347940
S   5.8688341630  8.3546462600  13.3712108210
S   5.0596198660  11.5485820010  12.2267094170
S   7.4866736220  13.8387484760  13.0774095110
S   9.6477526710  14.1346407860  10.3243439160
10
scale = 1.75000
Li  13.2358461375  12.9326108625  12.2781145025
Li  10.3780527200  10.5916757450  9.4627227450
S   14.5195899275  9.7508034225  10.0095497250
S   13.5134030325  8.5958408200  13.2431760300
S   11.1767637625  5.8946058675  12.8591801100
S   8.1810709400  7.0281052100  11.2313299350
S   6.0414469325  8.6003711500  13.7644817275
S   5.2084322150  11.8882461775  12.5863185175
S   7.7068699050  14.2457704900  13.4620392025
S   9.9315101025  14.5503655150  10.6280010900
10
scale = 1.80000
Li  13.6140131700  13.3021140300  12.6289177740
Li  10.6745685120  10.8942950520  9.7330862520
S   14.9344353540  10.0293978060  10.2955368600
S   13.8995002620  8.8414362720  13.6215524880
S   11.4960998700  6.0630231780  13.2265852560
S   8.4148158240  7.2289082160  11.5522250760
S   6.2140597020  8.8460960400  14.1577526340
S   5.3572445640  12.2279103540  12.9459276180
S   7.9270661880  14.6527925040  13.8466688940
S   10.2152675340  14.9660902440  10.9316582640
10
scale = 1.85000
Li  13.9921802025  13.6716171975  12.9797210455
Li  10.9710843040  11.1969143590  10.0034497590
S   15.3492807805  10.3079921895  10.5815239950
S   14.2855974915  9.0870317240  13.9999289460
S   11.8154359775  6.2314404885  13.5939904020
S   8.6485607080  7.4297112220  11.8731202170
S   6.3866724715  9.0918209300  14.5510235405
S   5.5060569130  12.5675745305  13.3055367185
S   8.1472624710  15.0598145180  14.2312985855
S   10.4990249655  15.3818149730  11.2353154380
10
scale = 1.90000
Li  14.3703472350  14.0411203650  13.3305243170
Li  11.2676000960  11.4995336660  10.2738132660
S   15.7641262070  10.5865865730  10.8675111300
S   14.6716947210  9.3326271760  14.3783054040
S   12.1347720850  6.3998577990  13.9613955480
S   8.8823055920  7.6305142280  12.1940153580
S   6.5592852410  9.3375458200  14.9442944470
S   5.6548692620  12.9072387070  13.6651458190
S   8.3674587540  15.4668365320  14.6159282770
S   10.7827823970  15.7975397020  11.5389726120
10
scale = 1.95000
Li  14.7485142675  14.4106235325  13.6813275885
Li  11.5641158880  11.8021529730  10.5441767730
S   16.1789716335  10.8651809565  11.1534982650
S   15.0577919505  9.5782226280  14.7566818620
S   12.4541081925  6.5682751095  14.3288006940
S   9.1160504760  7.8313172340  12.5149104990
S   6.7318980105  9.5832707100  15.3375653535
S   5.8036816110  13.2469028835  14.0247549195
S   8.5876550370  15.8738585460  15.0005579685
S   11.0665398285  16.2132644310  11.8426297860
10
scale = 2.00000
Li  15.1266813000  14.7801267000  14.0321308600
Li  11.8606316800  12.1047722800  10.8145402800
S   16.5938170600  11.1437753400  11.4394854000
S   15.4438891800  9.8238180800  15.1350583200
S   12.7734443000  6.7366924200  14.6962058400
S   9.3497953600  8.0321202400  12.8358056400
S   6.9045107800  9.8289956000  15.7308362600
S   5.9524939600  13.5865670600  14.3843640200
S   8.8078513200  16.2808805600  15.3851876600
S   11.3502972600  16.6289891600  12.1462869600
10
scale = 2.05000
Li  15.5048483325  15.1496298675  14.3829341315
Li  12.1571474720  12.4073915870  11.0849037870
S   17.0086624865  11.4223697235  11.7254725350
S   15.8299864095  10.0694135320  15.5134347780
S   13.0927804075  6.9051097305  15.0636109860
S   9.5835402440  8.2329232460  13.1567007810
S   7.0771235495  10.0747204900  16.1241071665
S   6.1013063090  13.9262312365  14.7439731205
S   9.0280476030  16.6879025740  15.7698173515
S   11.6340546915  17.0447138890  12.4499441340
10
scale = 2.10000
Li  15.8830153650  15.5191330350  14.7337374030
Li  12.4536632640  12.7100108940  11.3552672940
S   17.4235079130  11.7009641070  12.0114596700
S   16.2160836390  10.3150089840  15.8918112360
S   13.4121165150  7.0735270410  15.4310161320
S   9.8172851280  8.4337262520  13.4775959220
S   7.2497363190  10.3204453800  16.5173780730
S   6.2501186580  14.2658954130  15.1035822210
S   9.2482438860  17.0949245880  16.1544470430
S   11.9178121230  17.4604386180  12.7536013080
10
scale = 2.15000
Li  16.2611823975  15.8886362025  15.0845406745
Li  12.7501790560  13.0126302010  11.6256308010
S   17.8383533395  11.9795584905  12.2974468050
S   16.6021808685  10.5606044360  16.2701876940
S   13.7314526225  7.2419443515  15.7984212780
S   10.0510300120  8.6345292580  13.7984910630
S   7.4223490885  10.5661702700  16.9106489795
S   6.3989310070  14.6055595895  15.4631913215
S   9.4684401690  17.5019466020  16.5390767345
S   12.2015695545  17.8761633470  13.0572584820
10
scale = 2.20000
Li  16.6393494300  16.2581393700  15.4353439460
Li  13.0466948480  13.3152495080  11.8959943080
S   18.2531987660  12.2581528740  12.5834339400
S   16.9882780980  10.8061998880  16.6485641520
S   14.0507887300  7.4103616620  16.1658264240
S   10.2847748960  8.8353322640  14.1193862040
S   7.5949618580  10.8118951600  17.3039198860
S   6.5477433560  14.9452237660  15.8228004220
S   9.6886364520  17.9089686160  16.9237064260
S   12.4853269860  18.2918880760  13.3609156560
10
scale = 2.25000
Li  17.0175164625  16.6276425375  15.7861472175
Li  13.3432106400  13.6178688150  12.1663578150
S   18.6680441925  12.5367472575  12.8694210750
S   17.3743753275  11.0517953400  17.0269406100
S   14.3701248375  7.5787789725  16.5332315700
S   10.5185197800  9.0361352700  14.4402813450
S   7.7675746275  11.0576200500  17.6971907925
S   6.6965557050  15.2848879425  16.1824095225
S   9.9088327350  18.3159906300  17.3083361175
S   12.7690844175  18.7076128050  13.6645728300
10
scale = 2.30000
Li  17.3956834950  16.9971457050  16.1369504890
Li  13.6397264320  13.9204881220  12.4367213220
S   19.0828896190  12.8153416410  13.1554082100
S   17.7604725570  11.2973907920  17.4053170680
S   14.6894609450  7.7471962830  16.9006367160
S   10.7522646640  9.2369382760  14.7611764860
S   7.9401873970  11.3033449400  18.0904616990
S   6.8453680540  15.6245521190  16.5420186230
S   10.1290290180  18.7230126440  17.6929658090
S   13.0528418490  19.1233375340  13.9682300040
10
scale = 2.35000
Li  17.7738505275  17.3666488725  16.4877537605
Li  13.9362422240  14.2231074290  12.7070848290
S   19.4977350455  13.0939360245  13.4413953450
S   18.1465697865  11.5429862440  17.7836935260
S   15.0087970525  7.9156135935  17.2680418620
S   10.9860095480  9.4377412820  15.0820716270
S   8.1128001665  11.5490698300  18.4837326055
S   6.9941804030  15.9642162955  16.9016277235
S   10.3492253010  19.1300346580  18.0775955005
S   13.3365992805  19.5390622630  14.2718871780
10
scale = 2.40000
Li  18.1520175600  17.7361520400  16.8385570320
Li  14.2327580160  14.5257267360  12.9774483360
S   19.9125804720  13.3725304080  13.7273824800
S   18.5326670160  11.7885816960  18.1620699840
S   15.3281331600  8.0840309040  17.6354470080
S   11.2197544320  9.6385442880  15.4029667680
S   8.2854129360  11.7947947200  18.8770035120
S   7.1429927520  16.3038804720  17.2612368240
S   10.5694215840  19.5370566720  18.4622251920
S   13.6203567120  19.9547869920  14.5755443520
10
scale = 2.45000
Li  18.5301845925  18.1056552075  17.1893603035
Li  14.5292738080  14.8283460430  13.2478118430
S   20.3274258985  13.6511247915  14.0133696150
S   18.9187642455  12.0341771480  18.5404464420
S   15.6474692675  8.2524482145  18.0028521540
S   11.4534993160  9.8393472940  15.7238619090
S   8.4580257055  12.0405196100  19.2702744185
S   7.2918051010  16.6435446485  17.6208459245
S   10.7896178670  19.9440786860  18.8468548835
S   13.9041141435  20.3705117210  14.8792015260
