10
scale = 0.75000
Li  3.2523609375  6.5561363325  4.4731499400
Li  4.4198987925  4.9716379800  4.0075796250
S   4.9542837450  6.7416605475  4.0704635175
S   5.2661241075  6.0941262150  5.4520016100
S   6.5157148350  5.2083995625  5.2919421675
S   6.1132773300  3.9611594700  4.4297338200
S   5.3541925500  2.9742735900  5.3902866225
S   3.8495824725  2.9215862850  5.0101290900
S   3.0678722925  4.1332406025  5.5838897625
S   2.6156952900  4.9289177625  4.3186133175
10
scale = 0.80000
Li  3.4691850000  6.9932120880  4.7713599360
Li  4.7145587120  5.3030805120  4.2747516000
S   5.2845693280  7.1911045840  4.3418277520
S   5.6171990480  6.5004012960  5.8154683840
S   6.9500958240  5.5556262000  5.6447383120
S   6.5208291520  4.2252367680  4.7250494080
S   5.7111387200  3.1725584960  5.7496390640
S   4.1062213040  3.1163587040  5.3441376960
S   3.2723971120  4.4087899760  5.9561490800
S   2.7900749760  5.2575122800  4.6065208720
10
scale = 0.85000
Li  3.6860090625  7.4302878435  5.0695699320
Li  5.0092186315  5.6345230440  4.5419235750
S   5.6148549110  7.6405486205  4.6131919865
S   5.9682739885  6.9066763770  6.1789351580
S   7.3844768130  5.9028528375  5.9975344565
S   6.9283809740  4.4893140660  5.0203649960
S   6.0680848900  3.3708434020  6.1089915055
S   4.3628601355  3.3111311230  5.6781463020
S   3.4769219315  4.6843393495  6.3284083975
S   2.9644546620  5.5861067975  4.8944284265
10
scale = 0.90000
Li  3.9028331250  7.8673635990  5.3677799280
Li  5.3038785510  5.9659655760  4.8090955500
S   5.9451404940  8.0899926570  4.8845562210
S   6.3193489290  7.3129514580  6.5424019320
S   7.8188578020  6.2500794750  6.3503306010
S   7.3359327960  4.7533913640  5.3156805840
S   6.4250310600  3.5691283080  6.4683439470
S   4.6194989670  3.5059035420  6.0121549080
S   3.6814467510  4.9598887230  6.7006677150
S   3.1388343480  5.9147013150  5.1823359810
10
scale = 0.95000
Li  4.1196571875  8.3044393545  5.6659899240
Li  5.5985384705  6.2974081080  5.0762675250
S   6.2754260770  8.5394366935  5.1559204555
S   6.6704238695  7.7192265390  6.9058687060
S   8.2532387910  6.5973061125  6.7031267455
S   7.7434846180  5.0174686620  5.6109961720
S   6.7819772300  3.7674132140  6.8276963885
S   4.8761377985  3.7006759610  6.3461635140
S   3.8859715705  5.2354380965  7.0729270325
S   3.3132140340  6.2432958325  5.4702435355
10
scale = 1.00000
Li  4.3364812500  8.7415151100  5.9641999200
Li  5.8931983900  6.6288506400  5.3434395000
S   6.6057116600  8.9888807300  5.4272846900
S   7.0214988100  8.1255016200  7.2693354800
S   8.6876197800  6.9445327500  7.0559228900
S   8.1510364400  5.2815459600  5.9063117600
S   7.1389234000  3.9656981200  7.1870488300
S   5.1327766300  3.8954483800  6.6801721200
S   4.0904963900  5.5109874700  7.4451863500
S   3.4875937200  6.5718903500  5.7581510900
10
scale = 1.05000
Li  4.5533053125  9.1785908655  6.2624099160
Li  6.1878583095  6.9602931720  5.6106114750
S   6.9359972430  9.4383247665  5.6986489245
S   7.3725737505  8.5317767010  7.6328022540
S   9.1220007690  7.2917593875  7.4087190345
S   8.5585882620  5.5456232580  6.2016273480
S   7.4958695700  4.1639830260  7.5464012715
S   5.3894154615  4.0902207990  7.0141807260
S   4.2950212095  5.7865368435  7.8174456675
S   3.6619734060  6.9004848675  6.0460586445
10
scale = 1.10000
Li  4.7701293750  9.6156666210  6.5606199120
Li  6.4825182290  7.2917357040  5.8777834500
S   7.2662828260  9.8877688030  5.9700131590
S   7.7236486910  8.9380517820  7.9962690280
S   9.5563817580  7.6389860250  7.7615151790
S   8.9661400840  5.8097005560  6.4969429360
S   7.8528157400  4.3622679320  7.9057537130
S   5.6460542930  4.2849932180  7.3481893320
S   4.4995460290  6.0620862170  8.1897049850
S   3.8363530920  7.2290793850  6.3339661990
10
scale = 1.15000
Li  4.9869534375  10.0527423765  6.8588299080
Li  6.7771781485  7.6231782360  6.1449554250
S   7.5965684090  10.3372128395  6.2413773935
S   8.0747236315  9.3443268630  8.3597358020
S   9.9907627470  7.9862126625  8.1143113235
S   9.3736919060  6.0737778540  6.7922585240
S   8.2097619100  4.5605528380  8.2651061545
S   5.9026931245  4.4797656370  7.6821979380
S   4.7040708485  6.3376355905  8.5619643025
S   4.0107327780  7.5576739025  6.6218737535
10
scale = 1.20000
Li  5.2037775000  10.4898181320  7.1570399040
Li  7.0718380680  7.9546207680  6.4121274000
S   7.9268539920  10.7866568760  6.5127416280
S   8.4257985720  9.7506019440  8.7232025760
S   10.4251437360  8.3334393000  8.4671074680
S   9.7812437280  6.3378551520  7.0875741120
S   8.5667080800  4.7588377440  8.6244585960
S   6.1593319560  4.6745380560  8.0162065440
S   4.9085956680  6.6131849640  8.9342236200
S   4.1851124640  7.8862684200  6.9097813080
10
scale = 1.25000
Li  5.4206015625  10.9268938875  7.4552499000
Li  7.3664979875  8.2860633000  6.6792993750
S   8.2571395750  11.2361009125  6.7841058625
S   8.7768735125  10.1568770250  9.0866693500
S   10.8595247250  8.6806659375  8.8199036125
S   10.1887955500  6.6019324500  7.3828897000
S   8.9236542500  4.9571226500  8.9838110375
S   6.4159707875  4.8693104750  8.3502151500
S   5.1131204875  6.8887343375  9.3064829375
S   4.3594921500  8.2148629375  7.1976888625
10
scale = 1.30000
Li  5.6374256250  11.3639696430  7.7534598960
Li  7.6611579070  8.6175058320  6.9464713500
S   8.5874251580  11.6855449490  7.0554700970
S   9.1279484530  10.5631521060  9.4501361240
S   11.2939057140  9.0278925750  9.1726997570
S   10.5963473720  6.8660097480  7.6782052880
S   9.2806004200  5.1554075560  9.3431634790
S   6.6726096190  5.0640828940  8.6842237560
S   5.3176453070  7.1642837110  9.6787422550
S   4.5338718360  8.5434574550  7.4855964170
10
scale = 1.35000
Li  5.8542496875  11.8010453985  8.0516698920
Li  7.9558178265  8.9489483640  7.2136433250
S   8.9177107410  12.1349889855  7.3268343315
S   9.4790233935  10.9694271870  9.8136028980
S   11.7282867030  9.3751192125  9.5254959015
S   11.0038991940  7.1300870460  7.9735208760
S   9.6375465900  5.3536924620  9.7025159205
S   6.9292484505  5.2588553130  9.0182323620
S   5.5221701265  7.4398330845  10.0510015725
S   4.7082515220  8.8720519725  7.7735039715
10
scale = 1.40000
Li  6.0710737500  12.2381211540  8.3498798880
Li  8.2504777460  9.2803908960  7.4808153000
S   9.2479963240  12.5844330220  7.5981985660
S   9.8300983340  11.3757022680  10.1770696720
S   12.1626676920  9.7223458500  9.8782920460
S   11.4114510160  7.3941643440  8.2688364640
S   9.9944927600  5.5519773680  10.0618683620
S   7.1858872820  5.4536277320  9.3522409680
S   5.7266949460  7.7153824580  10.4232608900
S   4.8826312080  9.2006464900  8.0614115260
10
scale = 1.45000
Li  6.2878978125  12.6751969095  8.6480898840
Li  8.5451376655  9.6118334280  7.7479872750
S   9.5782819070  13.0338770585  7.8695628005
S   10.1811732745  11.7819773490  10.5405364460
S   12.5970486810  10.0695724875  10.2310881905
S   11.8190028380  7.6582416420  8.5641520520
S   10.3514389300  5.7502622740  10.4212208035
S   7.4425261135  5.6484001510  9.6862495740
S   5.9312197655  7.9909318315  10.7955202075
S   5.0570108940  9.5292410075  8.3493190805
10
scale = 1.50000
Li  6.5047218750  13.1122726650  8.9462998800
Li  8.8397975850  9.9432759600  8.0151592500
S   9.9085674900  13.4833210950  8.1409270350
S   10.5322482150  12.1882524300  10.9040032200
S   13.0314296700  10.4167991250  10.5838843350
S   12.2265546600  7.9223189400  8.8594676400
S   10.7083851000  5.9485471800  10.7805732450
S   7.6991649450  5.8431725700  10.0202581800
S   6.1357445850  8.2664812050  11.1677795250
S   5.2313905800  9.8578355250  8.6372266350
10
scale = 1.55000
Li  6.7215459375  13.5493484205  9.2445098760
Li  9.1344575045  10.2747184920  8.2823312250
S   10.2388530730  13.9327651315  8.4122912695
S   10.8833231555  12.5945275110  11.2674699940
S   13.4658106590  10.7640257625  10.9366804795
S   12.6341064820  8.1863962380  9.1547832280
S   11.0653312700  6.1468320860  11.1399256865
S   7.9558037765  6.0379449890  10.3542667860
S   6.3402694045  8.5420305785  11.5400388425
S   5.4057702660  10.1864300425  8.9251341895
10
scale = 1.60000
Li  6.9383700000  13.9864241760  9.5427198720
Li  9.4291174240  10.6061610240  8.5495032000
S   10.5691386560  14.3822091680  8.6836555040
S   11.2343980960  13.0008025920  11.6309367680
S   13.9001916480  11.1112524000  11.2894766240
S   13.0416583040  8.4504735360  9.4500988160
S   11.4222774400  6.3451169920  11.4992781280
S   8.2124426080  6.2327174080  10.6882753920
S   6.5447942240  8.8175799520  11.9122981600
S   5.5801499520  10.5150245600  9.2130417440
10
scale = 1.65000
Li  7.1551940625  14.4234999315  9.8409298680
Li  9.7237773435  10.9376035560  8.8166751750
S   10.8994242390  14.8316532045  8.9550197385
S   11.5854730365  13.4070776730  11.9944035420
S   14.3345726370  11.4584790375  11.6422727685
S   13.4492101260  8.7145508340  9.7454144040
S   11.7792236100  6.5434018980  11.8586305695
S   8.4690814395  6.4274898270  11.0222839980
S   6.7493190435  9.0931293255  12.2845574775
S   5.7545296380  10.8436190775  9.5009492985
10
scale = 1.70000
Li  7.3720181250  14.8605756870  10.1391398640
Li  10.0184372630  11.2690460880  9.0838471500
S   11.2297098220  15.2810972410  9.2263839730
S   11.9365479770  13.8133527540  12.3578703160
S   14.7689536260  11.8057056750  11.9950689130
S   13.8567619480  8.9786281320  10.0407299920
S   12.1361697800  6.7416868040  12.2179830110
S   8.7257202710  6.6222622460  11.3562926040
S   6.9538438630  9.3686786990  12.6568167950
S   5.9289093240  11.1722135950  9.7888568530
10
scale = 1.75000
Li  7.5888421875  15.2976514425  10.4373498600
Li  10.3130971825  11.6004886200  9.3510191250
S   11.5599954050  15.7305412775  9.4977482075
S   12.2876229175  14.2196278350  12.7213370900
S   15.2033346150  12.1529323125  12.3478650575
S   14.2643137700  9.2427054300  10.3360455800
S   12.4931159500  6.9399717100  12.5773354525
S   8.9823591025  6.8170346650  11.6903012100
S   7.1583686825  9.6442280725  13.0290761125
S   6.1032890100  11.5008081125  10.0767644075
10
scale = 1.80000
Li  7.8056662500  15.7347271980  10.7355598560
Li  10.6077571020  11.9319311520  9.6181911000
S   11.8902809880  16.1799853140  9.7691124420
S   12.6386978580  14.6259029160  13.0848038640
S   15.6377156040  12.5001589500  12.7006612020
S   14.6718655920  9.5067827280  10.6313611680
S   12.8500621200  7.1382566160  12.9366878940
S   9.2389979340  7.0118070840  12.0243098160
S   7.3628935020  9.9197774460  13.4013354300
S   6.2776686960  11.8294026300  10.3646719620
10
scale = 1.85000
Li  8.0224903125  16.1718029535  11.0337698520
Li  10.9024170215  12.2633736840  9.8853630750
S   12.2205665710  16.6294293505  10.0404766765
S   12.9897727985  15.0321779970  13.4482706380
S   16.0720965930  12.8473855875  13.0534573465
S   15.0794174140  9.7708600260  10.9266767560
S   13.2070082900  7.3365415220  13.2960403355
S   9.4956367655  7.2065795030  12.3583184220
S   7.5674183215  10.1953268195  13.7735947475
S   6.4520483820  12.1579971475  10.6525795165
10
scale = 1.90000
Li  8.2393143750  16.6088787090  11.3319798480
Li  11.1970769410  12.5948162160  10.1525350500
S   12.5508521540  17.0788733870  10.3118409110
S   13.3408477390  15.4384530780  13.8117374120
S   16.5064775820  13.1946122250  13.4062534910
S   15.4869692360  10.0349373240  11.2219923440
S   13.5639544600  7.5348264280  13.6553927770
S   9.7522755970  7.4013519220  12.6923270280
S   7.7719431410  10.4708761930  14.1458540650
S   6.6264280680  12.4865916650  10.9404870710
10
scale = 1.95000
Li  8.4561384375  17.0459544645  11.6301898440
Li  11.4917368605  12.9262587480  10.4197070250
S   12.8811377370  17.5283174235  10.5832051455
S   13.6919226795  15.8447281590  14.1752041860
S   16.9408585710  13.5418388625  13.7590496355
S   15.8945210580  10.2990146220  11.5173079320
S   13.9209006300  7.7331113340  14.0147452185
S   10.0089144285  7.5961243410  13.0263356340
S   7.9764679605  10.7464255665  14.5181133825
S   6.8008077540  12.8151861825  11.2283946255
10
scale = 2.00000
Li  8.6729625000  17.4830302200  11.9283998400
Li  11.7863967800  13.2577012800  10.6868790000
S   13.2114233200  17.9777614600  10.8545693800
S   14.0429976200  16.2510032400  14.5386709600
S   17.3752395600  13.8890655000  14.1118457800
S   16.3020728800  10.5630919200  11.8126235200
S   14.2778468000  7.9313962400  14.3740976600
S   10.2655532600  7.7908967600  13.3603442400
S   8.1809927800  11.0219749400  14.8903727000
S   6.9751874400  13.1437807000  11.5163021800
10
scale = 2.05000
Li  8.8897865625  17.9201059755  12.2266098360
Li  12.0810566995  13.5891438120  10.9540509750
S   13.5417089030  18.4272054965  11.1259336145
S   14.3940725605  16.6572783210  14.9021377340
S   17.8096205490  14.2362921375  14.4646419245
S   16.7096247020  10.8271692180  12.1079391080
S   14.6347929700  8.1296811460  14.7334501015
S   10.5221920915  7.9856691790  13.6943528460
S   8.3855175995  11.2975243135  15.2626320175
S   7.1495671260  13.4723752175  11.8042097345
10
scale = 2.10000
Li  9.1066106250  18.3571817310  12.5248198320
Li  12.3757166190  13.9205863440  11.2212229500
S   13.8719944860  18.8766495330  11.3972978490
S   14.7451475010  17.0635534020  15.2656045080
S   18.2440015380  14.5835187750  14.8174380690
S   17.1171765240  11.0912465160  12.4032546960
S   14.9917391400  8.3279660520  15.0928025430
S   10.7788309230  8.1804415980  14.0283614520
S   8.5900424190  11.5730736870  15.6348913350
S   7.3239468120  13.8009697350  12.0921172890
10
scale = 2.15000
Li  9.3234346875  18.7942574865  12.8230298280
Li  12.6703765385  14.2520288760  11.4883949250
S   14.2022800690  19.3260935695  11.6686620835
S   15.0962224415  17.4698284830  15.6290712820
S   18.6783825270  14.9307454125  15.1702342135
S   17.5247283460  11.3553238140  12.6985702840
S   15.3486853100  8.5262509580  15.4521549845
S   11.0354697545  8.3752140170  14.3623700580
S   8.7945672385  11.8486230605  16.0071506525
S   7.4983264980  14.1295642525  12.3800248435
10
scale = 2.20000
Li  9.5402587500  19.2313332420  13.1212398240
Li  12.9650364580  14.5834714080  11.7555669000
S   14.5325656520  19.7755376060  11.9400263180
S   15.4472973820  17.8761035640  15.9925380560
S   19.1127635160  15.2779720500  15.5230303580
S   17.9322801680  11.6194011120  12.9938858720
S   15.7056314800  8.7245358640  15.8115074260
S   11.2921085860  8.5699864360  14.6963786640
S   8.9990920580  12.1241724340  16.3794099700
S   7.6727061840  14.4581587700  12.6679323980
10
scale = 2.25000
Li  9.7570828125  19.6684089975  13.4194498200
Li  13.2596963775  14.9149139400  12.0227388750
S   14.8628512350  20.2249816425  12.2113905525
S   15.7983723225  18.2823786450  16.3560048300
S   19.5471445050  15.6251986875  15.8758265025
S   18.3398319900  11.8834784100  13.2892014600
S   16.0625776500  8.9228207700  16.1708598675
S   11.5487474175  8.7647588550  15.0303872700
S   9.2036168775  12.3997218075  16.7516692875
S   7.8470858700  14.7867532875  12.9558399525
10
scale = 2.30000
Li  9.9739068750  20.1054847530  13.7176598160
Li  13.5543562970  15.2463564720  12.2899108500
S   15.1931368180  20.6744256790  12.4827547870
S   16.1494472630  18.6886537260  16.7194716040
S   19.9815254940  15.9724253250  16.2286226470
S   18.7473838120  12.1475557080  13.5845170480
S   16.4195238200  9.1211056760  16.5302123090
S   11.8053862490  8.9595312740  15.3643958760
S   9.4081416970  12.6752711810  17.1239286050
S   8.0214655560  15.1153478050  13.2437475070
10
scale = 2.35000
Li  10.1907309375  20.5425605085  14.0158698120
Li  13.8490162165  15.5777990040  12.5570828250
S   15.5234224010  21.1238697155  12.7541190215
S   16.5005222035  19.0949288070  17.0829383780
S   20.4159064830  16.3196519625  16.5814187915
S   19.1549356340  12.4116330060  13.8798326360
S   16.7764699900  9.3193905820  16.8895647505
S   12.0620250805  9.1543036930  15.6984044820
S   9.6126665165  12.9508205545  17.4961879225
S   8.1958452420  15.4439423225  13.5316550615
10
scale = 2.40000
Li  10.4075550000  20.9796362640  14.3140798080
Li  14.1436761360  15.9092415360  12.8242548000
S   15.8537079840  21.5733137520  13.0254832560
S   16.8515971440  19.5012038880  17.4464051520
S   20.8502874720  16.6668786000  16.9342149360
S   19.5624874560  12.6757103040  14.1751482240
S   17.1334161600  9.5176754880  17.2489171920
S   12.3186639120  9.3490761120  16.0324130880
S   9.8171913360  13.2263699280  17.8684472400
S   8.3702249280  15.7725368400  13.8195626160
10
scale = 2.45000
Li  10.6243790625  21.4167120195  14.6122898040
Li  14.4383360555  16.2406840680  13.0914267750
S   16.1839935670  22.0227577885  13.2968474905
S   17.2026720845  19.9074789690  17.8098719260
S   21.2846684610  17.0141052375  17.2870110805
S   19.9700392780  12.9397876020  14.4704638120
S   17.4903623300  9.7159603940  17.6082696335
S   12.5753027435  9.5438485310  16.3664216940
S   10.0217161555  13.5019193015  18.2407065575
S   8.5446046140  16.1011313575  14.1074701705
