16
scale = 0.75000
Li  2.1114400350  3.9689709825  1.1049730200
Li  1.5831645750  2.3038121475  5.0200211475
Li  1.7996972925  0.1621361775  4.5247534575
Li  5.2000429725  3.4312771650  4.7787728325
Li  3.7958381925  0.9658850025  6.8481434025
Li  4.3241136525  2.6310438300  2.9330952750
Li  4.1075809425  4.7727198075  3.4283629650
Li  0.7072352550  1.5035788125  3.1743435825
Si  4.4372741775  4.1561737575  6.9697690275
Si  3.6371223525  2.7829797075  6.1156689375
Si  2.0325044175  4.6201413675  4.4237886750
Si  3.2017049625  3.2460427575  4.4273975700
Si  1.4700020850  0.7786772925  0.9833465325
Si  2.2701558750  2.1518762775  1.8374474775
Si  3.8747738100  0.3147146175  3.5293277400
Si  2.7055732650  1.6888132275  3.5257188525
16
scale = 0.80000
Li  2.2522027040  4.2335690480  1.1786378880
Li  1.6887088800  2.4573996240  5.3546892240
Li  1.9196771120  0.1729452560  4.8264036880
Li  5.5467125040  3.6600289760  5.0973576880
Li  4.0488940720  1.0302773360  7.3046862960
Li  4.6123878960  2.8064467520  3.1286349600
Li  4.3814196720  5.0909011280  3.6569204960
Li  0.7543842720  1.6038174000  3.3859664880
Si  4.7330924560  4.4332520080  7.4344202960
Si  3.8795971760  2.9685116880  6.5233802000
Si  2.1680047120  4.9281507920  4.7187079200
Si  3.4151519600  3.4624456080  4.7225574080
Si  1.5680022240  0.8305891120  1.0489029680
Si  2.4214996000  2.2953346960  1.9599439760
Si  4.1330920640  0.3356955920  3.7646162560
Si  2.8859448160  1.8014007760  3.7607667760
16
scale = 0.85000
Li  2.3929653730  4.4981671135  1.2523027560
Li  1.7942531850  2.6109871005  5.6893573005
Li  2.0396569315  0.1837543345  5.1280539185
Li  5.8933820355  3.8887807870  5.4159425435
Li  4.3019499515  1.0946696695  7.7612291895
Li  4.9006621395  2.9818496740  3.3241746450
Li  4.6552584015  5.4090824485  3.8854780270
Li  0.8015332890  1.7040559875  3.5975893935
Si  5.0289107345  4.7103302585  7.8990715645
Si  4.1220719995  3.1540436685  6.9310914625
Si  2.3035050065  5.2361602165  5.0136271650
Si  3.6285989575  3.6788484585  5.0177172460
Si  1.6660023630  0.8825009315  1.1144594035
Si  2.5728433250  2.4387931145  2.0824404745
Si  4.3914103180  0.3566765665  3.9999047720
Si  3.0663163670  1.9139883245  3.9958146995
16
scale = 0.90000
Li  2.5337280420  4.7627651790  1.3259676240
Li  1.8997974900  2.7645745770  6.0240253770
Li  2.1596367510  0.1945634130  5.4297041490
Li  6.2400515670  4.1175325980  5.7345273990
Li  4.5550058310  1.1590620030  8.2177720830
Li  5.1889363830  3.1572525960  3.5197143300
Li  4.9290971310  5.7272637690  4.1140355580
Li  0.8486823060  1.8042945750  3.8092122990
Si  5.3247290130  4.9874085090  8.3637228330
Si  4.3645468230  3.3395756490  7.3388027250
Si  2.4390053010  5.5441696410  5.3085464100
Si  3.8420459550  3.8952513090  5.3128770840
Si  1.7640025020  0.9344127510  1.1800158390
Si  2.7241870500  2.5822515330  2.2049369730
Si  4.6497285720  0.3776575410  4.2351932880
Si  3.2466879180  2.0265758730  4.2308626230
16
scale = 0.95000
Li  2.6744907110  5.0273632445  1.3996324920
Li  2.0053417950  2.9181620535  6.3586934535
Li  2.2796165705  0.2053724915  5.7313543795
Li  6.5867210985  4.3462844090  6.0531122545
Li  4.8080617105  1.2234543365  8.6743149765
Li  5.4772106265  3.3326555180  3.7152540150
Li  5.2029358605  6.0454450895  4.3425930890
Li  0.8958313230  1.9045331625  4.0208352045
Si  5.6205472915  5.2644867595  8.8283741015
Si  4.6070216465  3.5251076295  7.7465139875
Si  2.5745055955  5.8521790655  5.6034656550
Si  4.0554929525  4.1116541595  5.6080369220
Si  1.8620026410  0.9863245705  1.2455722745
Si  2.8755307750  2.7257099515  2.3274334715
Si  4.9080468260  0.3986385155  4.4704818040
Si  3.4270594690  2.1391634215  4.4659105465
16
scale = 1.00000
Li  2.8152533800  5.2919613100  1.4732973600
Li  2.1108861000  3.0717495300  6.6933615300
Li  2.3995963900  0.2161815700  6.0330046100
Li  6.9333906300  4.5750362200  6.3716971100
Li  5.0611175900  1.2878466700  9.1308578700
Li  5.7654848700  3.5080584400  3.9107937000
Li  5.4767745900  6.3636264100  4.5711506200
Li  0.9429803400  2.0047717500  4.2324581100
Si  5.9163655700  5.5415650100  9.2930253700
Si  4.8494964700  3.7106396100  8.1542252500
Si  2.7100058900  6.1601884900  5.8983849000
Si  4.2689399500  4.3280570100  5.9031967600
Si  1.9600027800  1.0382363900  1.3111287100
Si  3.0268745000  2.8691683700  2.4499299700
Si  5.1663650800  0.4196194900  4.7057703200
Si  3.6074310200  2.2517509700  4.7009584700
16
scale = 1.05000
Li  2.9560160490  5.5565593755  1.5469622280
Li  2.2164304050  3.2253370065  7.0280296065
Li  2.5195762095  0.2269906485  6.3346548405
Li  7.2800601615  4.8037880310  6.6902819655
Li  5.3141734695  1.3522390035  9.5874007635
Li  6.0537591135  3.6834613620  4.1063333850
Li  5.7506133195  6.6818077305  4.7997081510
Li  0.9901293570  2.1050103375  4.4440810155
Si  6.2121838485  5.8186432605  9.7576766385
Si  5.0919712935  3.8961715905  8.5619365125
Si  2.8455061845  6.4681979145  6.1933041450
Si  4.4823869475  4.5444598605  6.1983565980
Si  2.0580029190  1.0901482095  1.3766851455
Si  3.1782182250  3.0126267885  2.5724264685
Si  5.4246833340  0.4406004645  4.9410588360
Si  3.7878025710  2.3643385185  4.9360063935
16
scale = 1.10000
Li  3.0967787180  5.8211574410  1.6206270960
Li  2.3219747100  3.3789244830  7.3626976830
Li  2.6395560290  0.2377997270  6.6363050710
Li  7.6267296930  5.0325398420  7.0088668210
Li  5.5672293490  1.4166313370  10.0439436570
Li  6.3420333570  3.8588642840  4.3018730700
Li  6.0244520490  6.9999890510  5.0282656820
Li  1.0372783740  2.2052489250  4.6557039210
Si  6.5080021270  6.0957215110  10.2223279070
Si  5.3344461170  4.0817035710  8.9696477750
Si  2.9810064790  6.7762073390  6.4882233900
Si  4.6958339450  4.7608627110  6.4935164360
Si  2.1560030580  1.1420600290  1.4422415810
Si  3.3295619500  3.1560852070  2.6949229670
Si  5.6830015880  0.4615814390  5.1763473520
Si  3.9681741220  2.4769260670  5.1710543170
16
scale = 1.15000
Li  3.2375413870  6.0857555065  1.6942919640
Li  2.4275190150  3.5325119595  7.6973657595
Li  2.7595358485  0.2486088055  6.9379553015
Li  7.9733992245  5.2612916530  7.3274516765
Li  5.8202852285  1.4810236705  10.5004865505
Li  6.6303076005  4.0342672060  4.4974127550
Li  6.2982907785  7.3181703715  5.2568232130
Li  1.0844273910  2.3054875125  4.8673268265
Si  6.8038204055  6.3727997615  10.6869791755
Si  5.5769209405  4.2672355515  9.3773590375
Si  3.1165067735  7.0842167635  6.7831426350
Si  4.9092809425  4.9772655615  6.7886762740
Si  2.2540031970  1.1939718485  1.5077980165
Si  3.4809056750  3.2995436255  2.8174194655
Si  5.9413198420  0.4825624135  5.4116358680
Si  4.1485456730  2.5895136155  5.4061022405
16
scale = 1.20000
Li  3.3783040560  6.3503535720  1.7679568320
Li  2.5330633200  3.6860994360  8.0320338360
Li  2.8795156680  0.2594178840  7.2396055320
Li  8.3200687560  5.4900434640  7.6460365320
Li  6.0733411080  1.5454160040  10.9570294440
Li  6.9185818440  4.2096701280  4.6929524400
Li  6.5721295080  7.6363516920  5.4853807440
Li  1.1315764080  2.4057261000  5.0789497320
Si  7.0996386840  6.6498780120  11.1516304440
Si  5.8193957640  4.4527675320  9.7850703000
Si  3.2520070680  7.3922261880  7.0780618800
Si  5.1227279400  5.1936684120  7.0838361120
Si  2.3520033360  1.2458836680  1.5733544520
Si  3.6322494000  3.4430020440  2.9399159640
Si  6.1996380960  0.5035433880  5.6469243840
Si  4.3289172240  2.7021011640  5.6411501640
16
scale = 1.25000
Li  3.5190667250  6.6149516375  1.8416217000
Li  2.6386076250  3.8396869125  8.3667019125
Li  2.9994954875  0.2702269625  7.5412557625
Li  8.6667382875  5.7187952750  7.9646213875
Li  6.3263969875  1.6098083375  11.4135723375
Li  7.2068560875  4.3850730500  4.8884921250
Li  6.8459682375  7.9545330125  5.7139382750
Li  1.1787254250  2.5059646875  5.2905726375
Si  7.3954569625  6.9269562625  11.6162817125
Si  6.0618705875  4.6382995125  10.1927815625
Si  3.3875073625  7.7002356125  7.3729811250
Si  5.3361749375  5.4100712625  7.3789959500
Si  2.4500034750  1.2977954875  1.6389108875
Si  3.7835931250  3.5864604625  3.0624124625
Si  6.4579563500  0.5245243625  5.8822129000
Si  4.5092887750  2.8146887125  5.8761980875
16
scale = 1.30000
Li  3.6598293940  6.8795497030  1.9152865680
Li  2.7441519300  3.9932743890  8.7013699890
Li  3.1194753070  0.2810360410  7.8429059930
Li  9.0134078190  5.9475470860  8.2832062430
Li  6.5794528670  1.6742006710  11.8701152310
Li  7.4951303310  4.5604759720  5.0840318100
Li  7.1198069670  8.2727143330  5.9424958060
Li  1.2258744420  2.6062032750  5.5021955430
Si  7.6912752410  7.2040345130  12.0809329810
Si  6.3043454110  4.8238314930  10.6004928250
Si  3.5230076570  8.0082450370  7.6679003700
Si  5.5496219350  5.6264741130  7.6741557880
Si  2.5480036140  1.3497073070  1.7044673230
Si  3.9349368500  3.7299188810  3.1849089610
Si  6.7162746040  0.5455053370  6.1175014160
Si  4.6896603260  2.9272762610  6.1112460110
16
scale = 1.35000
Li  3.8005920630  7.1441477685  1.9889514360
Li  2.8496962350  4.1468618655  9.0360380655
Li  3.2394551265  0.2918451195  8.1445562235
Li  9.3600773505  6.1762988970  8.6017910985
Li  6.8325087465  1.7385930045  12.3266581245
Li  7.7834045745  4.7358788940  5.2795714950
Li  7.3936456965  8.5908956535  6.1710533370
Li  1.2730234590  2.7064418625  5.7138184485
Si  7.9870935195  7.4811127635  12.5455842495
Si  6.5468202345  5.0093634735  11.0082040875
Si  3.6585079515  8.3162544615  7.9628196150
Si  5.7630689325  5.8428769635  7.9693156260
Si  2.6460037530  1.4016191265  1.7700237585
Si  4.0862805750  3.8733772995  3.3074054595
Si  6.9745928580  0.5664863115  6.3527899320
Si  4.8700318770  3.0398638095  6.3462939345
16
scale = 1.40000
Li  3.9413547320  7.4087458340  2.0626163040
Li  2.9552405400  4.3004493420  9.3707061420
Li  3.3594349460  0.3026541980  8.4462064540
Li  9.7067468820  6.4050507080  8.9203759540
Li  7.0855646260  1.8029853380  12.7832010180
Li  8.0716788180  4.9112818160  5.4751111800
Li  7.6674844260  8.9090769740  6.3996108680
Li  1.3201724760  2.8066804500  5.9254413540
Si  8.2829117980  7.7581910140  13.0102355180
Si  6.7892950580  5.1948954540  11.4159153500
Si  3.7940082460  8.6242638860  8.2577388600
Si  5.9765159300  6.0592798140  8.2644754640
Si  2.7440038920  1.4535309460  1.8355801940
Si  4.2376243000  4.0168357180  3.4299019580
Si  7.2329111120  0.5874672860  6.5880784480
Si  5.0504034280  3.1524513580  6.5813418580
16
scale = 1.45000
Li  4.0821174010  7.6733438995  2.1362811720
Li  3.0607848450  4.4540368185  9.7053742185
Li  3.4794147655  0.3134632765  8.7478566845
Li  10.0534164135  6.6338025190  9.2389608095
Li  7.3386205055  1.8673776715  13.2397439115
Li  8.3599530615  5.0866847380  5.6706508650
Li  7.9413231555  9.2272582945  6.6281683990
Li  1.3673214930  2.9069190375  6.1370642595
Si  8.5787300765  8.0352692645  13.4748867865
Si  7.0317698815  5.3804274345  11.8236266125
Si  3.9295085405  8.9322733105  8.5526581050
Si  6.1899629275  6.2756826645  8.5596353020
Si  2.8420040310  1.5054427655  1.9011366295
Si  4.3889680250  4.1602941365  3.5523984565
Si  7.4912293660  0.6084482605  6.8233669640
Si  5.2307749790  3.2650389065  6.8163897815
16
scale = 1.50000
Li  4.2228800700  7.9379419650  2.2099460400
Li  3.1663291500  4.6076242950  10.0400422950
Li  3.5993945850  0.3242723550  9.0495069150
Li  10.4000859450  6.8625543300  9.5575456650
Li  7.5916763850  1.9317700050  13.6962868050
Li  8.6482273050  5.2620876600  5.8661905500
Li  8.2151618850  9.5454396150  6.8567259300
Li  1.4144705100  3.0071576250  6.3486871650
Si  8.8745483550  8.3123475150  13.9395380550
Si  7.2742447050  5.5659594150  12.2313378750
Si  4.0650088350  9.2402827350  8.8475773500
Si  6.4034099250  6.4920855150  8.8547951400
Si  2.9400041700  1.5573545850  1.9666930650
Si  4.5403117500  4.3037525550  3.6748949550
Si  7.7495476200  0.6294292350  7.0586554800
Si  5.4111465300  3.3776264550  7.0514377050
16
scale = 1.55000
Li  4.3636427390  8.2025400305  2.2836109080
Li  3.2718734550  4.7612117715  10.3747103715
Li  3.7193744045  0.3350814335  9.3511571455
Li  10.7467554765  7.0913061410  9.8761305205
Li  7.8447322645  1.9961623385  14.1528296985
Li  8.9365015485  5.4374905820  6.0617302350
Li  8.4890006145  9.8636209355  7.0852834610
Li  1.4616195270  3.1073962125  6.5603100705
Si  9.1703666335  8.5894257655  14.4041893235
Si  7.5167195285  5.7514913955  12.6390491375
Si  4.2005091295  9.5482921595  9.1424965950
Si  6.6168569225  6.7084883655  9.1499549780
Si  3.0380043090  1.6092664045  2.0322495005
Si  4.6916554750  4.4472109735  3.7973914535
Si  8.0078658740  0.6504102095  7.2939439960
Si  5.5915180810  3.4902140035  7.2864856285
16
scale = 1.60000
Li  4.5044054080  8.4671380960  2.3572757760
Li  3.3774177600  4.9147992480  10.7093784480
Li  3.8393542240  0.3458905120  9.6528073760
Li  11.0934250080  7.3200579520  10.1947153760
Li  8.0977881440  2.0605546720  14.6093725920
Li  9.2247757920  5.6128935040  6.2572699200
Li  8.7628393440  10.1818022560  7.3138409920
Li  1.5087685440  3.2076348000  6.7719329760
Si  9.4661849120  8.8665040160  14.8688405920
Si  7.7591943520  5.9370233760  13.0467604000
Si  4.3360094240  9.8563015840  9.4374158400
Si  6.8303039200  6.9248912160  9.4451148160
Si  3.1360044480  1.6611782240  2.0978059360
Si  4.8429992000  4.5906693920  3.9198879520
Si  8.2661841280  0.6713911840  7.5292325120
Si  5.7718896320  3.6028015520  7.5215335520
16
scale = 1.65000
Li  4.6451680770  8.7317361615  2.4309406440
Li  3.4829620650  5.0683867245  11.0440465245
Li  3.9593340435  0.3566995905  9.9544576065
Li  11.4400945395  7.5488097630  10.5133002315
Li  8.3508440235  2.1249470055  15.0659154855
Li  9.5130500355  5.7882964260  6.4528096050
Li  9.0366780735  10.4999835765  7.5423985230
Li  1.5559175610  3.3078733875  6.9835558815
Si  9.7620031905  9.1435822665  15.3334918605
Si  8.0016691755  6.1225553565  13.4544716625
Si  4.4715097185  10.1643110085  9.7323350850
Si  7.0437509175  7.1412940665  9.7402746540
Si  3.2340045870  1.7130900435  2.1633623715
Si  4.9943429250  4.7341278105  4.0423844505
Si  8.5245023820  0.6923721585  7.7645210280
Si  5.9522611830  3.7153891005  7.7565814755
16
scale = 1.70000
Li  4.7859307460  8.9963342270  2.5046055120
Li  3.5885063700  5.2219742010  11.3787146010
Li  4.0793138630  0.3675086690  10.2561078370
Li  11.7867640710  7.7775615740  10.8318850870
Li  8.6038999030  2.1893393390  15.5224583790
Li  9.8013242790  5.9636993480  6.6483492900
Li  9.3105168030  10.8181648970  7.7709560540
Li  1.6030665780  3.4081119750  7.1951787870
Si  10.0578214690  9.4206605170  15.7981431290
Si  8.2441439990  6.3080873370  13.8621829250
Si  4.6070100130  10.4723204330  10.0272543300
Si  7.2571979150  7.3576969170  10.0354344920
Si  3.3320047260  1.7650018630  2.2289188070
Si  5.1456866500  4.8775862290  4.1648809490
Si  8.7828206360  0.7133531330  7.9998095440
Si  6.1326327340  3.8279766490  7.9916293990
16
scale = 1.75000
Li  4.9266934150  9.2609322925  2.5782703800
Li  3.6940506750  5.3755616775  11.7133826775
Li  4.1992936825  0.3783177475  10.5577580675
Li  12.1334336025  8.0063133850  11.1504699425
Li  8.8569557825  2.2537316725  15.9790012725
Li  10.0895985225  6.1391022700  6.8438889750
Li  9.5843555325  11.1363462175  7.9995135850
Li  1.6502155950  3.5083505625  7.4068016925
Si  10.3536397475  9.6977387675  16.2627943975
Si  8.4866188225  6.4936193175  14.2698941875
Si  4.7425103075  10.7803298575  10.3221735750
Si  7.4706449125  7.5740997675  10.3305943300
Si  3.4300048650  1.8169136825  2.2944752425
Si  5.2970303750  5.0210446475  4.2873774475
Si  9.0411388900  0.7343341075  8.2350980600
Si  6.3130042850  3.9405641975  8.2266773225
16
scale = 1.80000
Li  5.0674560840  9.5255303580  2.6519352480
Li  3.7995949800  5.5291491540  12.0480507540
Li  4.3192735020  0.3891268260  10.8594082980
Li  12.4801031340  8.2350651960  11.4690547980
Li  9.1100116620  2.3181240060  16.4355441660
Li  10.3778727660  6.3145051920  7.0394286600
Li  9.8581942620  11.4545275380  8.2280711160
Li  1.6973646120  3.6085891500  7.6184245980
Si  10.6494580260  9.9748170180  16.7274456660
Si  8.7290936460  6.6791512980  14.6776054500
Si  4.8780106020  11.0883392820  10.6170928200
Si  7.6840919100  7.7905026180  10.6257541680
Si  3.5280050040  1.8688255020  2.3600316780
Si  5.4483741000  5.1645030660  4.4098739460
Si  9.2994571440  0.7553150820  8.4703865760
Si  6.4933758360  4.0531517460  8.4617252460
16
scale = 1.85000
Li  5.2082187530  9.7901284235  2.7256001160
Li  3.9051392850  5.6827366305  12.3827188305
Li  4.4392533215  0.3999359045  11.1610585285
Li  12.8267726655  8.4638170070  11.7876396535
Li  9.3630675415  2.3825163395  16.8920870595
Li  10.6661470095  6.4899081140  7.2349683450
Li  10.1320329915  11.7727088585  8.4566286470
Li  1.7445136290  3.7088277375  7.8300475035
Si  10.9452763045  10.2518952685  17.1920969345
Si  8.9715684695  6.8646832785  15.0853167125
Si  5.0135108965  11.3963487065  10.9120120650
Si  7.8975389075  8.0069054685  10.9209140060
Si  3.6260051430  1.9207373215  2.4255881135
Si  5.5997178250  5.3079614845  4.5323704445
Si  9.5577753980  0.7762960565  8.7056750920
Si  6.6737473870  4.1657392945  8.6967731695
16
scale = 1.90000
Li  5.3489814220  10.0547264890  2.7992649840
Li  4.0106835900  5.8363241070  12.7173869070
Li  4.5592331410  0.4107449830  11.4627087590
Li  13.1734421970  8.6925688180  12.1062245090
Li  9.6161234210  2.4469086730  17.3486299530
Li  10.9544212530  6.6653110360  7.4305080300
Li  10.4058717210  12.0908901790  8.6851861780
Li  1.7916626460  3.8090663250  8.0416704090
Si  11.2410945830  10.5289735190  17.6567482030
Si  9.2140432930  7.0502152590  15.4930279750
Si  5.1490111910  11.7043581310  11.2069313100
Si  8.1109859050  8.2233083190  11.2160738440
Si  3.7240052820  1.9726491410  2.4911445490
Si  5.7510615500  5.4514199030  4.6548669430
Si  9.8160936520  0.7972770310  8.9409636080
Si  6.8541189380  4.2783268430  8.9318210930
16
scale = 1.95000
Li  5.4897440910  10.3193245545  2.8729298520
Li  4.1162278950  5.9899115835  13.0520549835
Li  4.6792129605  0.4215540615  11.7643589895
Li  13.5201117285  8.9213206290  12.4248093645
Li  9.8691793005  2.5113010065  17.8051728465
Li  11.2426954965  6.8407139580  7.6260477150
Li  10.6797104505  12.4090714995  8.9137437090
Li  1.8388116630  3.9093049125  8.2532933145
Si  11.5369128615  10.8060517695  18.1213994715
Si  9.4565181165  7.2357472395  15.9007392375
Si  5.2845114855  12.0123675555  11.5018505550
Si  8.3244329025  8.4397111695  11.5112336820
Si  3.8220054210  2.0245609605  2.5567009845
Si  5.9024052750  5.5948783215  4.7773634415
Si  10.0744119060  0.8182580055  9.1762521240
Si  7.0344904890  4.3909143915  9.1668690165
16
scale = 2.00000
Li  5.6305067600  10.5839226200  2.9465947200
Li  4.2217722000  6.1434990600  13.3867230600
Li  4.7991927800  0.4323631400  12.0660092200
Li  13.8667812600  9.1500724400  12.7433942200
Li  10.1222351800  2.5756933400  18.2617157400
Li  11.5309697400  7.0161168800  7.8215874000
Li  10.9535491800  12.7272528200  9.1423012400
Li  1.8859606800  4.0095435000  8.4649162200
Si  11.8327311400  11.0831300200  18.5860507400
Si  9.6989929400  7.4212792200  16.3084505000
Si  5.4200117800  12.3203769800  11.7967698000
Si  8.5378799000  8.6561140200  11.8063935200
Si  3.9200055600  2.0764727800  2.6222574200
Si  6.0537490000  5.7383367400  4.8998599400
Si  10.3327301600  0.8392389800  9.4115406400
Si  7.2148620400  4.5035019400  9.4019169400
16
scale = 2.05000
Li  5.7712694290  10.8485206855  3.0202595880
Li  4.3273165050  6.2970865365  13.7213911365
Li  4.9191725995  0.4431722185  12.3676594505
Li  14.2134507915  9.3788242510  13.0619790755
Li  10.3752910595  2.6400856735  18.7182586335
Li  11.8192439835  7.1915198020  8.0171270850
Li  11.2273879095  13.0454341405  9.3708587710
Li  1.9331096970  4.1097820875  8.6765391255
Si  12.1285494185  11.3602082705  19.0507020085
Si  9.9414677635  7.6068112005  16.7161617625
Si  5.5555120745  12.6283864045  12.0916890450
Si  8.7513268975  8.8725168705  12.1015533580
Si  4.0180056990  2.1283845995  2.6878138555
Si  6.2050927250  5.8817951585  5.0223564385
Si  10.5910484140  0.8602199545  9.6468291560
Si  7.3952335910  4.6160894885  9.6369648635
16
scale = 2.10000
Li  5.9120320980  11.1131187510  3.0939244560
Li  4.4328608100  6.4506740130  14.0560592130
Li  5.0391524190  0.4539812970  12.6693096810
Li  14.5601203230  9.6075760620  13.3805639310
Li  10.6283469390  2.7044780070  19.1748015270
Li  12.1075182270  7.3669227240  8.2126667700
Li  11.5012266390  13.3636154610  9.5994163020
Li  1.9802587140  4.2100206750  8.8881620310
Si  12.4243676970  11.6372865210  19.5153532770
Si  10.1839425870  7.7923431810  17.1238730250
Si  5.6910123690  12.9363958290  12.3866082900
Si  8.9647738950  9.0889197210  12.3967131960
Si  4.1160058380  2.1802964190  2.7533702910
Si  6.3564364500  6.0252535770  5.1448529370
Si  10.8493666680  0.8812009290  9.8821176720
Si  7.5756051420  4.7286770370  9.8720127870
16
scale = 2.15000
Li  6.0527947670  11.3777168165  3.1675893240
Li  4.5384051150  6.6042614895  14.3907272895
Li  5.1591322385  0.4647903755  12.9709599115
Li  14.9067898545  9.8363278730  13.6991487865
Li  10.8814028185  2.7688703405  19.6313444205
Li  12.3957924705  7.5423256460  8.4082064550
Li  11.7750653685  13.6817967815  9.8279738330
Li  2.0274077310  4.3102592625  9.0997849365
Si  12.7201859755  11.9143647715  19.9800045455
Si  10.4264174105  7.9778751615  17.5315842875
Si  5.8265126635  13.2444052535  12.6815275350
Si  9.1782208925  9.3053225715  12.6918730340
Si  4.2140059770  2.2322082385  2.8189267265
Si  6.5077801750  6.1687119955  5.2673494355
Si  11.1076849220  0.9021819035  10.1174061880
Si  7.7559766930  4.8412645855  10.1070607105
16
scale = 2.20000
Li  6.1935574360  11.6423148820  3.2412541920
Li  4.6439494200  6.7578489660  14.7253953660
Li  5.2791120580  0.4755994540  13.2726101420
Li  15.2534593860  10.0650796840  14.0177336420
Li  11.1344586980  2.8332626740  20.0878873140
Li  12.6840667140  7.7177285680  8.6037461400
Li  12.0489040980  13.9999781020  10.0565313640
Li  2.0745567480  4.4104978500  9.3114078420
Si  13.0160042540  12.1914430220  20.4446558140
Si  10.6688922340  8.1634071420  17.9392955500
Si  5.9620129580  13.5524146780  12.9764467800
Si  9.3916678900  9.5217254220  12.9870328720
Si  4.3120061160  2.2841200580  2.8844831620
Si  6.6591239000  6.3121704140  5.3898459340
Si  11.3660031760  0.9231628780  10.3526947040
Si  7.9363482440  4.9538521340  10.3421086340
16
scale = 2.25000
Li  6.3343201050  11.9069129475  3.3149190600
Li  4.7494937250  6.9114364425  15.0600634425
Li  5.3990918775  0.4864085325  13.5742603725
Li  15.6001289175  10.2938314950  14.3363184975
Li  11.3875145775  2.8976550075  20.5444302075
Li  12.9723409575  7.8931314900  8.7992858250
Li  12.3227428275  14.3181594225  10.2850888950
Li  2.1217057650  4.5107364375  9.5230307475
Si  13.3118225325  12.4685212725  20.9093070825
Si  10.9113670575  8.3489391225  18.3470068125
Si  6.0975132525  13.8604241025  13.2713660250
Si  9.6051148875  9.7381282725  13.2821927100
Si  4.4100062550  2.3360318775  2.9500395975
Si  6.8104676250  6.4556288325  5.5123424325
Si  11.6243214300  0.9441438525  10.5879832200
Si  8.1167197950  5.0664396825  10.5771565575
16
scale = 2.30000
Li  6.4750827740  12.1715110130  3.3885839280
Li  4.8550380300  7.0650239190  15.3947315190
Li  5.5190716970  0.4972176110  13.8759106030
Li  15.9467984490  10.5225833060  14.6549033530
Li  11.6405704570  2.9620473410  21.0009731010
Li  13.2606152010  8.0685344120  8.9948255100
Li  12.5965815570  14.6363407430  10.5136464260
Li  2.1688547820  4.6109750250  9.7346536530
Si  13.6076408110  12.7455995230  21.3739583510
Si  11.1538418810  8.5344711030  18.7547180750
Si  6.2330135470  14.1684335270  13.5662852700
Si  9.8185618850  9.9545311230  13.5773525480
Si  4.5080063940  2.3879436970  3.0155960330
Si  6.9618113500  6.5990872510  5.6348389310
Si  11.8826396840  0.9651248270  10.8232717360
Si  8.2970913460  5.1790272310  10.8122044810
16
scale = 2.35000
Li  6.6158454430  12.4361090785  3.4622487960
Li  4.9605823350  7.2186113955  15.7293995955
Li  5.6390515165  0.5080266895  14.1775608335
Li  16.2934679805  10.7513351170  14.9734882085
Li  11.8936263365  3.0264396745  21.4575159945
Li  13.5488894445  8.2439373340  9.1903651950
Li  12.8704202865  14.9545220635  10.7422039570
Li  2.2160037990  4.7112136125  9.9462765585
Si  13.9034590895  13.0226777735  21.8386096195
Si  11.3963167045  8.7200030835  19.1624293375
Si  6.3685138415  14.4764429515  13.8612045150
Si  10.0320088825  10.1709339735  13.8725123860
Si  4.6060065330  2.4398555165  3.0811524685
Si  7.1131550750  6.7425456695  5.7573354295
Si  12.1409579380  0.9861058015  11.0585602520
Si  8.4774628970  5.2916147795  11.0472524045
16
scale = 2.40000
Li  6.7566081120  12.7007071440  3.5359136640
Li  5.0661266400  7.3721988720  16.0640676720
Li  5.7590313360  0.5188357680  14.4792110640
Li  16.6401375120  10.9800869280  15.2920730640
Li  12.1466822160  3.0908320080  21.9140588880
Li  13.8371636880  8.4193402560  9.3859048800
Li  13.1442590160  15.2727033840  10.9707614880
Li  2.2631528160  4.8114522000  10.1578994640
Si  14.1992773680  13.2997560240  22.3032608880
Si  11.6387915280  8.9055350640  19.5701406000
Si  6.5040141360  14.7844523760  14.1561237600
Si  10.2454558800  10.3873368240  14.1676722240
Si  4.7040066720  2.4917673360  3.1467089040
Si  7.2644988000  6.8860040880  5.8798319280
Si  12.3992761920  1.0070867760  11.2938487680
Si  8.6578344480  5.4042023280  11.2823003280
16
scale = 2.45000
Li  6.8973707810  12.9653052095  3.6095785320
Li  5.1716709450  7.5257863485  16.3987357485
Li  5.8790111555  0.5296448465  14.7808612945
Li  16.9868070435  11.2088387390  15.6106579195
Li  12.3997380955  3.1552243415  22.3706017815
Li  14.1254379315  8.5947431780  9.5814445650
Li  13.4180977455  15.5908847045  11.1993190190
Li  2.3103018330  4.9116907875  10.3695223695
Si  14.4950956465  13.5768342745  22.7679121565
Si  11.8812663515  9.0910670445  19.9778518625
Si  6.6395144305  15.0924618005  14.4510430050
Si  10.4589028775  10.6037396745  14.4628320620
Si  4.8020068110  2.5436791555  3.2122653395
Si  7.4158425250  7.0294625065  6.0023284265
Si  12.6575944460  1.0280677505  11.5291372840
Si  8.8382059990  5.5167898765  11.5173482515
