4
scale = 0.75000
Li  0.0000000000  0.0000000000  0.0000000000
Li  0.9524243775  0.6734657400  1.6496474175
Si  2.8572731400  2.0203972125  4.9489422525
Si  1.9048487625  1.3469314725  3.2992948350
4
scale = 0.80000
Li  0.0000000000  0.0000000000  0.0000000000
Li  1.0159193360  0.7183634560  1.7596239120
Si  3.0477580160  2.1550903600  5.2788717360
Si  2.0318386800  1.4367269040  3.5192478240
4
scale = 0.85000
Li  0.0000000000  0.0000000000  0.0000000000
Li  1.0794142945  0.7632611720  1.8696004065
Si  3.2382428920  2.2897835075  5.6088012195
Si  2.1588285975  1.5265223355  3.7392008130
4
scale = 0.90000
Li  0.0000000000  0.0000000000  0.0000000000
Li  1.1429092530  0.8081588880  1.9795769010
Si  3.4287277680  2.4244766550  5.9387307030
Si  2.2858185150  1.6163177670  3.9591538020
4
scale = 0.95000
Li  0.0000000000  0.0000000000  0.0000000000
Li  1.2064042115  0.8530566040  2.0895533955
Si  3.6192126440  2.5591698025  6.2686601865
Si  2.4128084325  1.7061131985  4.1791067910
4
scale = 1.00000
Li  0.0000000000  0.0000000000  0.0000000000
Li  1.2698991700  0.8979543200  2.1995298900
Si  3.8096975200  2.6938629500  6.5985896700
Si  2.5397983500  1.7959086300  4.3990597800
4
scale = 1.05000
Li  0.0000000000  0.0000000000  0.0000000000
Li  1.3333941285  0.9428520360  2.3095063845
Si  4.0001823960  2.8285560975  6.9285191535
Si  2.6667882675  1.8857040615  4.6190127690
4
scale = 1.10000
Li  0.0000000000  0.0000000000  0.0000000000
Li  1.3968890870  0.9877497520  2.4194828790
Si  4.1906672720  2.9632492450  7.2584486370
Si  2.7937781850  1.9754994930  4.8389657580
4
scale = 1.15000
Li  0.0000000000  0.0000000000  0.0000000000
Li  1.4603840455  1.0326474680  2.5294593735
Si  4.3811521480  3.0979423925  7.5883781205
Si  2.9207681025  2.0652949245  5.0589187470
4
scale = 1.20000
Li  0.0000000000  0.0000000000  0.0000000000
Li  1.5238790040  1.0775451840  2.6394358680
Si  4.5716370240  3.2326355400  7.9183076040
Si  3.0477580200  2.1550903560  5.2788717360
4
scale = 1.25000
Li  0.0000000000  0.0000000000  0.0000000000
Li  1.5873739625  1.1224429000  2.7494123625
Si  4.7621219000  3.3673286875  8.2482370875
Si  3.1747479375  2.2448857875  5.4988247250
4
scale = 1.30000
Li  0.0000000000  0.0000000000  0.0000000000
Li  1.6508689210  1.1673406160  2.8593888570
Si  4.9526067760  3.5020218350  8.5781665710
Si  3.3017378550  2.3346812190  5.7187777140
4
scale = 1.35000
Li  0.0000000000  0.0000000000  0.0000000000
Li  1.7143638795  1.2122383320  2.9693653515
Si  5.1430916520  3.6367149825  8.9080960545
Si  3.4287277725  2.4244766505  5.9387307030
4
scale = 1.40000
Li  0.0000000000  0.0000000000  0.0000000000
Li  1.7778588380  1.2571360480  3.0793418460
Si  5.3335765280  3.7714081300  9.2380255380
Si  3.5557176900  2.5142720820  6.1586836920
4
scale = 1.45000
Li  0.0000000000  0.0000000000  0.0000000000
Li  1.8413537965  1.3020337640  3.1893183405
Si  5.5240614040  3.9061012775  9.5679550215
Si  3.6827076075  2.6040675135  6.3786366810
4
scale = 1.50000
Li  0.0000000000  0.0000000000  0.0000000000
Li  1.9048487550  1.3469314800  3.2992948350
Si  5.7145462800  4.0407944250  9.8978845050
Si  3.8096975250  2.6938629450  6.5985896700
4
scale = 1.55000
Li  0.0000000000  0.0000000000  0.0000000000
Li  1.9683437135  1.3918291960  3.4092713295
Si  5.9050311560  4.1754875725  10.2278139885
Si  3.9366874425  2.7836583765  6.8185426590
4
scale = 1.60000
Li  0.0000000000  0.0000000000  0.0000000000
Li  2.0318386720  1.4367269120  3.5192478240
Si  6.0955160320  4.3101807200  10.5577434720
Si  4.0636773600  2.8734538080  7.0384956480
4
scale = 1.65000
Li  0.0000000000  0.0000000000  0.0000000000
Li  2.0953336305  1.4816246280  3.6292243185
Si  6.2860009080  4.4448738675  10.8876729555
Si  4.1906672775  2.9632492395  7.2584486370
4
scale = 1.70000
Li  0.0000000000  0.0000000000  0.0000000000
Li  2.1588285890  1.5265223440  3.7392008130
Si  6.4764857840  4.5795670150  11.2176024390
Si  4.3176571950  3.0530446710  7.4784016260
4
scale = 1.75000
Li  0.0000000000  0.0000000000  0.0000000000
Li  2.2223235475  1.5714200600  3.8491773075
Si  6.6669706600  4.7142601625  11.5475319225
Si  4.4446471125  3.1428401025  7.6983546150
4
scale = 1.80000
Li  0.0000000000  0.0000000000  0.0000000000
Li  2.2858185060  1.6163177760  3.9591538020
Si  6.8574555360  4.8489533100  11.8774614060
Si  4.5716370300  3.2326355340  7.9183076040
4
scale = 1.85000
Li  0.0000000000  0.0000000000  0.0000000000
Li  2.3493134645  1.6612154920  4.0691302965
Si  7.0479404120  4.9836464575  12.2073908895
Si  4.6986269475  3.3224309655  8.1382605930
4
scale = 1.90000
Li  0.0000000000  0.0000000000  0.0000000000
Li  2.4128084230  1.7061132080  4.1791067910
Si  7.2384252880  5.1183396050  12.5373203730
Si  4.8256168650  3.4122263970  8.3582135820
4
scale = 1.95000
Li  0.0000000000  0.0000000000  0.0000000000
Li  2.4763033815  1.7510109240  4.2890832855
Si  7.4289101640  5.2530327525  12.8672498565
Si  4.9526067825  3.5020218285  8.5781665710
4
scale = 2.00000
Li  0.0000000000  0.0000000000  0.0000000000
Li  2.5397983400  1.7959086400  4.3990597800
Si  7.6193950400  5.3877259000  13.1971793400
Si  5.0795967000  3.5918172600  8.7981195600
4
scale = 2.05000
Li  0.0000000000  0.0000000000  0.0000000000
Li  2.6032932985  1.8408063560  4.5090362745
Si  7.8098799160  5.5224190475  13.5271088235
Si  5.2065866175  3.6816126915  9.0180725490
4
scale = 2.10000
Li  0.0000000000  0.0000000000  0.0000000000
Li  2.6667882570  1.8857040720  4.6190127690
Si  8.0003647920  5.6571121950  13.8570383070
Si  5.3335765350  3.7714081230  9.2380255380
4
scale = 2.15000
Li  0.0000000000  0.0000000000  0.0000000000
Li  2.7302832155  1.9306017880  4.7289892635
Si  8.1908496680  5.7918053425  14.1869677905
Si  5.4605664525  3.8612035545  9.4579785270
4
scale = 2.20000
Li  0.0000000000  0.0000000000  0.0000000000
Li  2.7937781740  1.9754995040  4.8389657580
Si  8.3813345440  5.9264984900  14.5168972740
Si  5.5875563700  3.9509989860  9.6779315160
4
scale = 2.25000
Li  0.0000000000  0.0000000000  0.0000000000
Li  2.8572731325  2.0203972200  4.9489422525
Si  8.5718194200  6.0611916375  14.8468267575
Si  5.7145462875  4.0407944175  9.8978845050
4
scale = 2.30000
Li  0.0000000000  0.0000000000  0.0000000000
Li  2.9207680910  2.0652949360  5.0589187470
Si  8.7623042960  6.1958847850  15.1767562410
Si  5.8415362050  4.1305898490  10.1178374940
4
scale = 2.35000
Li  0.0000000000  0.0000000000  0.0000000000
Li  2.9842630495  2.1101926520  5.1688952415
Si  8.9527891720  6.3305779325  15.5066857245
Si  5.9685261225  4.2203852805  10.3377904830
4
scale = 2.40000
Li  0.0000000000  0.0000000000  0.0000000000
Li  3.0477580080  2.1550903680  5.2788717360
Si  9.1432740480  6.4652710800  15.8366152080
Si  6.0955160400  4.3101807120  10.5577434720
4
scale = 2.45000
Li  0.0000000000  0.0000000000  0.0000000000
Li  3.1112529665  2.1999880840  5.3888482305
Si  9.3337589240  6.5999642275  16.1665446915
Si  6.2225059575  4.3999761435  10.7776964610
