16
scale = 0.75000
Li  0.3549666375  4.2664817250  -1.4775331500
Li  2.8110771300  2.5589764950  3.6333551400
Li  -0.2666275875  0.7456253100  4.1369159475
Li  0.3577433100  3.6863943900  0.5907019875
Li  1.7462209800  0.8493989775  2.8866747000
Li  3.2407078425  1.8904577325  -0.2272919025
Li  -1.1286656850  2.6627501700  3.6946172250
Li  1.3165902600  1.5179177475  0.6519640725
Si  1.5132599550  1.2437752875  4.7948493000
Si  2.7888651975  0.3882276000  1.2900396975
Si  3.0440381550  2.1646001850  1.7251805400
Si  0.1023411225  2.2391890800  -0.7097980350
Si  3.7253256450  0.8224864500  2.7950115675
Si  1.7684329125  3.0201478800  -0.8653675275
Si  0.8319724650  2.5858890300  3.7250182725
Si  4.4549569875  1.1691864000  1.1344702050
16
scale = 0.80000
Li  0.3786310800  4.5509138400  -1.5760353600
Li  2.9984822720  2.7295749280  3.8755788160
Li  -0.2844027600  0.7953336640  4.4127103440
Li  0.3815928640  3.9321540160  0.6300821200
Li  1.8626357120  0.9060255760  3.0791196800
Li  3.4567550320  2.0164882480  -0.2424446960
Li  -1.2039100640  2.8402668480  3.9409250400
Li  1.4043629440  1.6191122640  0.6954283440
Si  1.6141439520  1.3266936400  5.1145059200
Si  2.9747895440  0.4141094400  1.3760423440
Si  3.2469740320  2.3089068640  1.8401925760
Si  0.1091638640  2.3884683520  -0.7571179040
Si  3.9736806880  0.8773188800  2.9813456720
Si  1.8863284400  3.2214910720  -0.9230586960
Si  0.8874372960  2.7582816320  3.9733528240
Si  4.7519541200  1.2471321600  1.2101015520
16
scale = 0.85000
Li  0.4022955225  4.8353459550  -1.6745375700
Li  3.1858874140  2.9001733610  4.1178024920
Li  -0.3021779325  0.8450420180  4.6885047405
Li  0.4054424180  4.1779136420  0.6694622525
Li  1.9790504440  0.9626521745  3.2715646600
Li  3.6728022215  2.1425187635  -0.2575974895
Li  -1.2791544430  3.0177835260  4.1872328550
Li  1.4921356280  1.7203067805  0.7388926155
Si  1.7150279490  1.4096119925  5.4341625400
Si  3.1607138905  0.4399912800  1.4620449905
Si  3.4499099090  2.4532135430  1.9552046120
Si  0.1159866055  2.5377476240  -0.8044377730
Si  4.2220357310  0.9321513100  3.1676797765
Si  2.0042239675  3.4228342640  -0.9807498645
Si  0.9429021270  2.9306742340  4.2216873755
Si  5.0489512525  1.3250779200  1.2857328990
16
scale = 0.90000
Li  0.4259599650  5.1197780700  -1.7730397800
Li  3.3732925560  3.0707717940  4.3600261680
Li  -0.3199531050  0.8947503720  4.9642991370
Li  0.4292919720  4.4236732680  0.7088423850
Li  2.0954651760  1.0192787730  3.4640096400
Li  3.8888494110  2.2685492790  -0.2727502830
Li  -1.3543988220  3.1953002040  4.4335406700
Li  1.5799083120  1.8215012970  0.7823568870
Si  1.8159119460  1.4925303450  5.7538191600
Si  3.3466382370  0.4658731200  1.5480476370
Si  3.6528457860  2.5975202220  2.0702166480
Si  0.1228093470  2.6870268960  -0.8517576420
Si  4.4703907740  0.9869837400  3.3540138810
Si  2.1221194950  3.6241774560  -1.0384410330
Si  0.9983669580  3.1030668360  4.4700219270
Si  5.3459483850  1.4030236800  1.3613642460
16
scale = 0.95000
Li  0.4496244075  5.4042101850  -1.8715419900
Li  3.5606976980  3.2413702270  4.6022498440
Li  -0.3377282775  0.9444587260  5.2400935335
Li  0.4531415260  4.6694328940  0.7482225175
Li  2.2118799080  1.0759053715  3.6564546200
Li  4.1048966005  2.3945797945  -0.2879030765
Li  -1.4296432010  3.3728168820  4.6798484850
Li  1.6676809960  1.9226958135  0.8258211585
Si  1.9167959430  1.5754486975  6.0734757800
Si  3.5325625835  0.4917549600  1.6340502835
Si  3.8557816630  2.7418269010  2.1852286840
Si  0.1296320885  2.8363061680  -0.8990775110
Si  4.7187458170  1.0418161700  3.5403479855
Si  2.2400150225  3.8255206480  -1.0961322015
Si  1.0538317890  3.2754594380  4.7183564785
Si  5.6429455175  1.4809694400  1.4369955930
16
scale = 1.00000
Li  0.4732888500  5.6886423000  -1.9700442000
Li  3.7481028400  3.4119686600  4.8444735200
Li  -0.3555034500  0.9941670800  5.5158879300
Li  0.4769910800  4.9151925200  0.7876026500
Li  2.3282946400  1.1325319700  3.8488996000
Li  4.3209437900  2.5206103100  -0.3030558700
Li  -1.5048875800  3.5503335600  4.9261563000
Li  1.7554536800  2.0238903300  0.8692854300
Si  2.0176799400  1.6583670500  6.3931324000
Si  3.7184869300  0.5176368000  1.7200529300
Si  4.0587175400  2.8861335800  2.3002407200
Si  0.1364548300  2.9855854400  -0.9463973800
Si  4.9671008600  1.0966486000  3.7266820900
Si  2.3579105500  4.0268638400  -1.1538233700
Si  1.1092966200  3.4478520400  4.9666910300
Si  5.9399426500  1.5589152000  1.5126269400
16
scale = 1.05000
Li  0.4969532925  5.9730744150  -2.0685464100
Li  3.9355079820  3.5825670930  5.0866971960
Li  -0.3732786225  1.0438754340  5.7916823265
Li  0.5008406340  5.1609521460  0.8269827825
Li  2.4447093720  1.1891585685  4.0413445800
Li  4.5369909795  2.6466408255  -0.3182086635
Li  -1.5801319590  3.7278502380  5.1724641150
Li  1.8432263640  2.1250848465  0.9127497015
Si  2.1185639370  1.7412854025  6.7127890200
Si  3.9044112765  0.5435186400  1.8060555765
Si  4.2616534170  3.0304402590  2.4152527560
Si  0.1432775715  3.1348647120  -0.9937172490
Si  5.2154559030  1.1514810300  3.9130161945
Si  2.4758060775  4.2282070320  -1.2115145385
Si  1.1647614510  3.6202446420  5.2150255815
Si  6.2369397825  1.6368609600  1.5882582870
16
scale = 1.10000
Li  0.5206177350  6.2575065300  -2.1670486200
Li  4.1229131240  3.7531655260  5.3289208720
Li  -0.3910537950  1.0935837880  6.0674767230
Li  0.5246901880  5.4067117720  0.8663629150
Li  2.5611241040  1.2457851670  4.2337895600
Li  4.7530381690  2.7726713410  -0.3333614570
Li  -1.6553763380  3.9053669160  5.4187719300
Li  1.9309990480  2.2262793630  0.9562139730
Si  2.2194479340  1.8242037550  7.0324456400
Si  4.0903356230  0.5694004800  1.8920582230
Si  4.4645892940  3.1747469380  2.5302647920
Si  0.1501003130  3.2841439840  -1.0410371180
Si  5.4638109460  1.2063134600  4.0993502990
Si  2.5937016050  4.4295502240  -1.2692057070
Si  1.2202262820  3.7926372440  5.4633601330
Si  6.5339369150  1.7148067200  1.6638896340
16
scale = 1.15000
Li  0.5442821775  6.5419386450  -2.2655508300
Li  4.3103182660  3.9237639590  5.5711445480
Li  -0.4088289675  1.1432921420  6.3432711195
Li  0.5485397420  5.6524713980  0.9057430475
Li  2.6775388360  1.3024117655  4.4262345400
Li  4.9690853585  2.8987018565  -0.3485142505
Li  -1.7306207170  4.0828835940  5.6650797450
Li  2.0187717320  2.3274738795  0.9996782445
Si  2.3203319310  1.9071221075  7.3521022600
Si  4.2762599695  0.5952823200  1.9780608695
Si  4.6675251710  3.3190536170  2.6452768280
Si  0.1569230545  3.4334232560  -1.0883569870
Si  5.7121659890  1.2611458900  4.2856844035
Si  2.7115971325  4.6308934160  -1.3268968755
Si  1.2756911130  3.9650298460  5.7116946845
Si  6.8309340475  1.7927524800  1.7395209810
16
scale = 1.20000
Li  0.5679466200  6.8263707600  -2.3640530400
Li  4.4977234080  4.0943623920  5.8133682240
Li  -0.4266041400  1.1930004960  6.6190655160
Li  0.5723892960  5.8982310240  0.9451231800
Li  2.7939535680  1.3590383640  4.6186795200
Li  5.1851325480  3.0247323720  -0.3636670440
Li  -1.8058650960  4.2604002720  5.9113875600
Li  2.1065444160  2.4286683960  1.0431425160
Si  2.4212159280  1.9900404600  7.6717588800
Si  4.4621843160  0.6211641600  2.0640635160
Si  4.8704610480  3.4633602960  2.7602888640
Si  0.1637457960  3.5827025280  -1.1356768560
Si  5.9605210320  1.3159783200  4.4720185080
Si  2.8294926600  4.8322366080  -1.3845880440
Si  1.3311559440  4.1374224480  5.9600292360
Si  7.1279311800  1.8706982400  1.8151523280
16
scale = 1.25000
Li  0.5916110625  7.1108028750  -2.4625552500
Li  4.6851285500  4.2649608250  6.0555919000
Li  -0.4443793125  1.2427088500  6.8948599125
Li  0.5962388500  6.1439906500  0.9845033125
Li  2.9103683000  1.4156649625  4.8111245000
Li  5.4011797375  3.1507628875  -0.3788198375
Li  -1.8811094750  4.4379169500  6.1576953750
Li  2.1943171000  2.5298629125  1.0866067875
Si  2.5220999250  2.0729588125  7.9914155000
Si  4.6481086625  0.6470460000  2.1500661625
Si  5.0733969250  3.6076669750  2.8753009000
Si  0.1705685375  3.7319818000  -1.1829967250
Si  6.2088760750  1.3708107500  4.6583526125
Si  2.9473881875  5.0335798000  -1.4422792125
Si  1.3866207750  4.3098150500  6.2083637875
Si  7.4249283125  1.9486440000  1.8907836750
16
scale = 1.30000
Li  0.6152755050  7.3952349900  -2.5610574600
Li  4.8725336920  4.4355592580  6.2978155760
Li  -0.4621544850  1.2924172040  7.1706543090
Li  0.6200884040  6.3897502760  1.0238834450
Li  3.0267830320  1.4722915610  5.0035694800
Li  5.6172269270  3.2767934030  -0.3939726310
Li  -1.9563538540  4.6154336280  6.4040031900
Li  2.2820897840  2.6310574290  1.1300710590
Si  2.6229839220  2.1558771650  8.3110721200
Si  4.8340330090  0.6729278400  2.2360688090
Si  5.2763328020  3.7519736540  2.9903129360
Si  0.1773912790  3.8812610720  -1.2303165940
Si  6.4572311180  1.4256431800  4.8446867170
Si  3.0652837150  5.2349229920  -1.4999703810
Si  1.4420856060  4.4822076520  6.4566983390
Si  7.7219254450  2.0265897600  1.9664150220
16
scale = 1.35000
Li  0.6389399475  7.6796671050  -2.6595596700
Li  5.0599388340  4.6061576910  6.5400392520
Li  -0.4799296575  1.3421255580  7.4464487055
Li  0.6439379580  6.6355099020  1.0632635775
Li  3.1431977640  1.5289181595  5.1960144600
Li  5.8332741165  3.4028239185  -0.4091254245
Li  -2.0315982330  4.7929503060  6.6503110050
Li  2.3698624680  2.7322519455  1.1735353305
Si  2.7238679190  2.2387955175  8.6307287400
Si  5.0199573555  0.6988096800  2.3220714555
Si  5.4792686790  3.8962803330  3.1053249720
Si  0.1842140205  4.0305403440  -1.2776364630
Si  6.7055861610  1.4804756100  5.0310208215
Si  3.1831792425  5.4362661840  -1.5576615495
Si  1.4975504370  4.6546002540  6.7050328905
Si  8.0189225775  2.1045355200  2.0420463690
16
scale = 1.40000
Li  0.6626043900  7.9640992200  -2.7580618800
Li  5.2473439760  4.7767561240  6.7822629280
Li  -0.4977048300  1.3918339120  7.7222431020
Li  0.6677875120  6.8812695280  1.1026437100
Li  3.2596124960  1.5855447580  5.3884594400
Li  6.0493213060  3.5288544340  -0.4242782180
Li  -2.1068426120  4.9704669840  6.8966188200
Li  2.4576351520  2.8334464620  1.2169996020
Si  2.8247519160  2.3217138700  8.9503853600
Si  5.2058817020  0.7246915200  2.4080741020
Si  5.6822045560  4.0405870120  3.2203370080
Si  0.1910367620  4.1798196160  -1.3249563320
Si  6.9539412040  1.5353080400  5.2173549260
Si  3.3010747700  5.6376093760  -1.6153527180
Si  1.5530152680  4.8269928560  6.9533674420
Si  8.3159197100  2.1824812800  2.1176777160
16
scale = 1.45000
Li  0.6862688325  8.2485313350  -2.8565640900
Li  5.4347491180  4.9473545570  7.0244866040
Li  -0.5154800025  1.4415422660  7.9980374985
Li  0.6916370660  7.1270291540  1.1420238425
Li  3.3760272280  1.6421713565  5.5809044200
Li  6.2653684955  3.6548849495  -0.4394310115
Li  -2.1820869910  5.1479836620  7.1429266350
Li  2.5454078360  2.9346409785  1.2604638735
Si  2.9256359130  2.4046322225  9.2700419800
Si  5.3918060485  0.7505733600  2.4940767485
Si  5.8851404330  4.1848936910  3.3353490440
Si  0.1978595035  4.3290988880  -1.3722762010
Si  7.2022962470  1.5901404700  5.4036890305
Si  3.4189702975  5.8389525680  -1.6730438865
Si  1.6084800990  4.9993854580  7.2017019935
Si  8.6129168425  2.2604270400  2.1933090630
16
scale = 1.50000
Li  0.7099332750  8.5329634500  -2.9550663000
Li  5.6221542600  5.1179529900  7.2667102800
Li  -0.5332551750  1.4912506200  8.2738318950
Li  0.7154866200  7.3727887800  1.1814039750
Li  3.4924419600  1.6987979550  5.7733494000
Li  6.4814156850  3.7809154650  -0.4545838050
Li  -2.2573313700  5.3255003400  7.3892344500
Li  2.6331805200  3.0358354950  1.3039281450
Si  3.0265199100  2.4875505750  9.5896986000
Si  5.5777303950  0.7764552000  2.5800793950
Si  6.0880763100  4.3292003700  3.4503610800
Si  0.2046822450  4.4783781600  -1.4195960700
Si  7.4506512900  1.6449729000  5.5900231350
Si  3.5368658250  6.0402957600  -1.7307350550
Si  1.6639449300  5.1717780600  7.4500365450
Si  8.9099139750  2.3383728000  2.2689404100
16
scale = 1.55000
Li  0.7335977175  8.8173955650  -3.0535685100
Li  5.8095594020  5.2885514230  7.5089339560
Li  -0.5510303475  1.5409589740  8.5496262915
Li  0.7393361740  7.6185484060  1.2207841075
Li  3.6088566920  1.7554245535  5.9657943800
Li  6.6974628745  3.9069459805  -0.4697365985
Li  -2.3325757490  5.5030170180  7.6355422650
Li  2.7209532040  3.1370300115  1.3473924165
Si  3.1274039070  2.5704689275  9.9093552200
Si  5.7636547415  0.8023370400  2.6660820415
Si  6.2910121870  4.4735070490  3.5653731160
Si  0.2115049865  4.6276574320  -1.4669159390
Si  7.6990063330  1.6998053300  5.7763572395
Si  3.6547613525  6.2416389520  -1.7884262235
Si  1.7194097610  5.3441706620  7.6983710965
Si  9.2069111075  2.4163185600  2.3445717570
16
scale = 1.60000
Li  0.7572621600  9.1018276800  -3.1520707200
Li  5.9969645440  5.4591498560  7.7511576320
Li  -0.5688055200  1.5906673280  8.8254206880
Li  0.7631857280  7.8643080320  1.2601642400
Li  3.7252714240  1.8120511520  6.1582393600
Li  6.9135100640  4.0329764960  -0.4848893920
Li  -2.4078201280  5.6805336960  7.8818500800
Li  2.8087258880  3.2382245280  1.3908566880
Si  3.2282879040  2.6533872800  10.2290118400
Si  5.9495790880  0.8282188800  2.7520846880
Si  6.4939480640  4.6178137280  3.6803851520
Si  0.2183277280  4.7769367040  -1.5142358080
Si  7.9473613760  1.7546377600  5.9626913440
Si  3.7726568800  6.4429821440  -1.8461173920
Si  1.7748745920  5.5165632640  7.9467056480
Si  9.5039082400  2.4942643200  2.4202031040
16
scale = 1.65000
Li  0.7809266025  9.3862597950  -3.2505729300
Li  6.1843696860  5.6297482890  7.9933813080
Li  -0.5865806925  1.6403756820  9.1012150845
Li  0.7870352820  8.1100676580  1.2995443725
Li  3.8416861560  1.8686777505  6.3506843400
Li  7.1295572535  4.1590070115  -0.5000421855
Li  -2.4830645070  5.8580503740  8.1281578950
Li  2.8964985720  3.3394190445  1.4343209595
Si  3.3291719010  2.7363056325  10.5486684600
Si  6.1355034345  0.8541007200  2.8380873345
Si  6.6968839410  4.7621204070  3.7953971880
Si  0.2251504695  4.9262159760  -1.5615556770
Si  8.1957164190  1.8094701900  6.1490254485
Si  3.8905524075  6.6443253360  -1.9038085605
Si  1.8303394230  5.6889558660  8.1950401995
Si  9.8009053725  2.5722100800  2.4958344510
16
scale = 1.70000
Li  0.8045910450  9.6706919100  -3.3490751400
Li  6.3717748280  5.8003467220  8.2356049840
Li  -0.6043558650  1.6900840360  9.3770094810
Li  0.8108848360  8.3558272840  1.3389245050
Li  3.9581008880  1.9253043490  6.5431293200
Li  7.3456044430  4.2850375270  -0.5151949790
Li  -2.5583088860  6.0355670520  8.3744657100
Li  2.9842712560  3.4406135610  1.4777852310
Si  3.4300558980  2.8192239850  10.8683250800
Si  6.3214277810  0.8799825600  2.9240899810
Si  6.8998198180  4.9064270860  3.9104092240
Si  0.2319732110  5.0754952480  -1.6088755460
Si  8.4440714620  1.8643026200  6.3353595530
Si  4.0084479350  6.8456685280  -1.9614997290
Si  1.8858042540  5.8613484680  8.4433747510
Si  10.0979025050  2.6501558400  2.5714657980
16
scale = 1.75000
Li  0.8282554875  9.9551240250  -3.4475773500
Li  6.5591799700  5.9709451550  8.4778286600
Li  -0.6221310375  1.7397923900  9.6528038775
Li  0.8347343900  8.6015869100  1.3783046375
Li  4.0745156200  1.9819309475  6.7355743000
Li  7.5616516325  4.4110680425  -0.5303477725
Li  -2.6335532650  6.2130837300  8.6207735250
Li  3.0720439400  3.5418080775  1.5212495025
Si  3.5309398950  2.9021423375  11.1879817000
Si  6.5073521275  0.9058644000  3.0100926275
Si  7.1027556950  5.0507337650  4.0254212600
Si  0.2387959525  5.2247745200  -1.6561954150
Si  8.6924265050  1.9191350500  6.5216936575
Si  4.1263434625  7.0470117200  -2.0191908975
Si  1.9412690850  6.0337410700  8.6917093025
Si  10.3948996375  2.7281016000  2.6470971450
16
scale = 1.80000
Li  0.8519199300  10.2395561400  -3.5460795600
Li  6.7465851120  6.1415435880  8.7200523360
Li  -0.6399062100  1.7895007440  9.9285982740
Li  0.8585839440  8.8473465360  1.4176847700
Li  4.1909303520  2.0385575460  6.9280192800
Li  7.7776988220  4.5370985580  -0.5455005660
Li  -2.7087976440  6.3906004080  8.8670813400
Li  3.1598166240  3.6430025940  1.5647137740
Si  3.6318238920  2.9850606900  11.5076383200
Si  6.6932764740  0.9317462400  3.0960952740
Si  7.3056915720  5.1950404440  4.1404332960
Si  0.2456186940  5.3740537920  -1.7035152840
Si  8.9407815480  1.9739674800  6.7080277620
Si  4.2442389900  7.2483549120  -2.0768820660
Si  1.9967339160  6.2061336720  8.9400438540
Si  10.6918967700  2.8060473600  2.7227284920
16
scale = 1.85000
Li  0.8755843725  10.5239882550  -3.6445817700
Li  6.9339902540  6.3121420210  8.9622760120
Li  -0.6576813825  1.8392090980  10.2043926705
Li  0.8824334980  9.0931061620  1.4570649025
Li  4.3073450840  2.0951841445  7.1204642600
Li  7.9937460115  4.6631290735  -0.5606533595
Li  -2.7840420230  6.5681170860  9.1133891550
Li  3.2475893080  3.7441971105  1.6081780455
Si  3.7327078890  3.0679790425  11.8272949400
Si  6.8792008205  0.9576280800  3.1820979205
Si  7.5086274490  5.3393471230  4.2554453320
Si  0.2524414355  5.5233330640  -1.7508351530
Si  9.1891365910  2.0287999100  6.8943618665
Si  4.3621345175  7.4496981040  -2.1345732345
Si  2.0521987470  6.3785262740  9.1883784055
Si  10.9888939025  2.8839931200  2.7983598390
16
scale = 1.90000
Li  0.8992488150  10.8084203700  -3.7430839800
Li  7.1213953960  6.4827404540  9.2044996880
Li  -0.6754565550  1.8889174520  10.4801870670
Li  0.9062830520  9.3388657880  1.4964450350
Li  4.4237598160  2.1518107430  7.3129092400
Li  8.2097932010  4.7891595890  -0.5758061530
Li  -2.8592864020  6.7456337640  9.3596969700
Li  3.3353619920  3.8453916270  1.6516423170
Si  3.8335918860  3.1508973950  12.1469515600
Si  7.0651251670  0.9835099200  3.2681005670
Si  7.7115633260  5.4836538020  4.3704573680
Si  0.2592641770  5.6726123360  -1.7981550220
Si  9.4374916340  2.0836323400  7.0806959710
Si  4.4800300450  7.6510412960  -2.1922644030
Si  2.1076635780  6.5509188760  9.4367129570
Si  11.2858910350  2.9619388800  2.8739911860
16
scale = 1.95000
Li  0.9229132575  11.0928524850  -3.8415861900
Li  7.3088005380  6.6533388870  9.4467233640
Li  -0.6932317275  1.9386258060  10.7559814635
Li  0.9301326060  9.5846254140  1.5358251675
Li  4.5401745480  2.2084373415  7.5053542200
Li  8.4258403905  4.9151901045  -0.5909589465
Li  -2.9345307810  6.9231504420  9.6060047850
Li  3.4231346760  3.9465861435  1.6951065885
Si  3.9344758830  3.2338157475  12.4666081800
Si  7.2510495135  1.0093917600  3.3541032135
Si  7.9144992030  5.6279604810  4.4854694040
Si  0.2660869185  5.8218916080  -1.8454748910
Si  9.6858466770  2.1384647700  7.2670300755
Si  4.5979255725  7.8523844880  -2.2499555715
Si  2.1631284090  6.7233114780  9.6850475085
Si  11.5828881675  3.0398846400  2.9496225330
16
scale = 2.00000
Li  0.9465777000  11.3772846000  -3.9400884000
Li  7.4962056800  6.8239373200  9.6889470400
Li  -0.7110069000  1.9883341600  11.0317758600
Li  0.9539821600  9.8303850400  1.5752053000
Li  4.6565892800  2.2650639400  7.6977992000
Li  8.6418875800  5.0412206200  -0.6061117400
Li  -3.0097751600  7.1006671200  9.8523126000
Li  3.5109073600  4.0477806600  1.7385708600
Si  4.0353598800  3.3167341000  12.7862648000
Si  7.4369738600  1.0352736000  3.4401058600
Si  8.1174350800  5.7722671600  4.6004814400
Si  0.2729096600  5.9711708800  -1.8927947600
Si  9.9342017200  2.1932972000  7.4533641800
Si  4.7158211000  8.0537276800  -2.3076467400
Si  2.2185932400  6.8957040800  9.9333820600
Si  11.8798853000  3.1178304000  3.0252538800
16
scale = 2.05000
Li  0.9702421425  11.6617167150  -4.0385906100
Li  7.6836108220  6.9945357530  9.9311707160
Li  -0.7287820725  2.0380425140  11.3075702565
Li  0.9778317140  10.0761446660  1.6145854325
Li  4.7730040120  2.3216905385  7.8902441800
Li  8.8579347695  5.1672511355  -0.6212645335
Li  -3.0850195390  7.2781837980  10.0986204150
Li  3.5986800440  4.1489751765  1.7820351315
Si  4.1362438770  3.3996524525  13.1059214200
Si  7.6228982065  1.0611554400  3.5261085065
Si  8.3203709570  5.9165738390  4.7154934760
Si  0.2797324015  6.1204501520  -1.9401146290
Si  10.1825567630  2.2481296300  7.6396982845
Si  4.8337166275  8.2550708720  -2.3653379085
Si  2.2740580710  7.0680966820  10.1817166115
Si  12.1768824325  3.1957761600  3.1008852270
16
scale = 2.10000
Li  0.9939065850  11.9461488300  -4.1370928200
Li  7.8710159640  7.1651341860  10.1733943920
Li  -0.7465572450  2.0877508680  11.5833646530
Li  1.0016812680  10.3219042920  1.6539655650
Li  4.8894187440  2.3783171370  8.0826891600
Li  9.0739819590  5.2932816510  -0.6364173270
Li  -3.1602639180  7.4557004760  10.3449282300
Li  3.6864527280  4.2501696930  1.8254994030
Si  4.2371278740  3.4825708050  13.4255780400
Si  7.8088225530  1.0870372800  3.6121111530
Si  8.5233068340  6.0608805180  4.8305055120
Si  0.2865551430  6.2697294240  -1.9874344980
Si  10.4309118060  2.3029620600  7.8260323890
Si  4.9516121550  8.4564140640  -2.4230290770
Si  2.3295229020  7.2404892840  10.4300511630
Si  12.4738795650  3.2737219200  3.1765165740
16
scale = 2.15000
Li  1.0175710275  12.2305809450  -4.2355950300
Li  8.0584211060  7.3357326190  10.4156180680
Li  -0.7643324175  2.1374592220  11.8591590495
Li  1.0255308220  10.5676639180  1.6933456975
Li  5.0058334760  2.4349437355  8.2751341400
Li  9.2900291485  5.4193121665  -0.6515701205
Li  -3.2355082970  7.6332171540  10.5912360450
Li  3.7742254120  4.3513642095  1.8689636745
Si  4.3380118710  3.5654891575  13.7452346600
Si  7.9947468995  1.1129191200  3.6981137995
Si  8.7262427110  6.2051871970  4.9455175480
Si  0.2933778845  6.4190086960  -2.0347543670
Si  10.6792668490  2.3577944900  8.0123664935
Si  5.0695076825  8.6577572560  -2.4807202455
Si  2.3849877330  7.4128818860  10.6783857145
Si  12.7708766975  3.3516676800  3.2521479210
16
scale = 2.20000
Li  1.0412354700  12.5150130600  -4.3340972400
Li  8.2458262480  7.5063310520  10.6578417440
Li  -0.7821075900  2.1871675760  12.1349534460
Li  1.0493803760  10.8134235440  1.7327258300
Li  5.1222482080  2.4915703340  8.4675791200
Li  9.5060763380  5.5453426820  -0.6667229140
Li  -3.3107526760  7.8107338320  10.8375438600
Li  3.8619980960  4.4525587260  1.9124279460
Si  4.4388958680  3.6484075100  14.0648912800
Si  8.1806712460  1.1388009600  3.7841164460
Si  8.9291785880  6.3494938760  5.0605295840
Si  0.3002006260  6.5682879680  -2.0820742360
Si  10.9276218920  2.4126269200  8.1987005980
Si  5.1874032100  8.8591004480  -2.5384114140
Si  2.4404525640  7.5852744880  10.9267202660
Si  13.0678738300  3.4296134400  3.3277792680
16
scale = 2.25000
Li  1.0648999125  12.7994451750  -4.4325994500
Li  8.4332313900  7.6769294850  10.9000654200
Li  -0.7998827625  2.2368759300  12.4107478425
Li  1.0732299300  11.0591831700  1.7721059625
Li  5.2386629400  2.5481969325  8.6600241000
Li  9.7221235275  5.6713731975  -0.6818757075
Li  -3.3859970550  7.9882505100  11.0838516750
Li  3.9497707800  4.5537532425  1.9558922175
Si  4.5397798650  3.7313258625  14.3845479000
Si  8.3665955925  1.1646828000  3.8701190925
Si  9.1321144650  6.4938005550  5.1755416200
Si  0.3070233675  6.7175672400  -2.1293941050
Si  11.1759769350  2.4674593500  8.3850347025
Si  5.3052987375  9.0604436400  -2.5961025825
Si  2.4959173950  7.7576670900  11.1750548175
Si  13.3648709625  3.5075592000  3.4034106150
16
scale = 2.30000
Li  1.0885643550  13.0838772900  -4.5311016600
Li  8.6206365320  7.8475279180  11.1422890960
Li  -0.8176579350  2.2865842840  12.6865422390
Li  1.0970794840  11.3049427960  1.8114860950
Li  5.3550776720  2.6048235310  8.8524690800
Li  9.9381707170  5.7974037130  -0.6970285010
Li  -3.4612414340  8.1657671880  11.3301594900
Li  4.0375434640  4.6549477590  1.9993564890
Si  4.6406638620  3.8142442150  14.7042045200
Si  8.5525199390  1.1905646400  3.9561217390
Si  9.3350503420  6.6381072340  5.2905536560
Si  0.3138461090  6.8668465120  -2.1767139740
Si  11.4243319780  2.5222917800  8.5713688070
Si  5.4231942650  9.2617868320  -2.6537937510
Si  2.5513822260  7.9300596920  11.4233893690
Si  13.6618680950  3.5855049600  3.4790419620
16
scale = 2.35000
Li  1.1122287975  13.3683094050  -4.6296038700
Li  8.8080416740  8.0181263510  11.3845127720
Li  -0.8354331075  2.3362926380  12.9623366355
Li  1.1209290380  11.5507024220  1.8508662275
Li  5.4714924040  2.6614501295  9.0449140600
Li  10.1542179065  5.9234342285  -0.7121812945
Li  -3.5364858130  8.3432838660  11.5764673050
Li  4.1253161480  4.7561422755  2.0428207605
Si  4.7415478590  3.8971625675  15.0238611400
Si  8.7384442855  1.2164464800  4.0421243855
Si  9.5379862190  6.7824139130  5.4055656920
Si  0.3206688505  7.0161257840  -2.2240338430
Si  11.6726870210  2.5771242100  8.7577029115
Si  5.5410897925  9.4631300240  -2.7114849195
Si  2.6068470570  8.1024522940  11.6717239205
Si  13.9588652275  3.6634507200  3.5546733090
16
scale = 2.40000
Li  1.1358932400  13.6527415200  -4.7281060800
Li  8.9954468160  8.1887247840  11.6267364480
Li  -0.8532082800  2.3860009920  13.2381310320
Li  1.1447785920  11.7964620480  1.8902463600
Li  5.5879071360  2.7180767280  9.2373590400
Li  10.3702650960  6.0494647440  -0.7273340880
Li  -3.6117301920  8.5208005440  11.8227751200
Li  4.2130888320  4.8573367920  2.0862850320
Si  4.8424318560  3.9800809200  15.3435177600
Si  8.9243686320  1.2423283200  4.1281270320
Si  9.7409220960  6.9267205920  5.5205777280
Si  0.3274915920  7.1654050560  -2.2713537120
Si  11.9210420640  2.6319566400  8.9440370160
Si  5.6589853200  9.6644732160  -2.7691760880
Si  2.6623118880  8.2748448960  11.9200584720
Si  14.2558623600  3.7413964800  3.6303046560
16
scale = 2.45000
Li  1.1595576825  13.9371736350  -4.8266082900
Li  9.1828519580  8.3593232170  11.8689601240
Li  -0.8709834525  2.4357093460  13.5139254285
Li  1.1686281460  12.0422216740  1.9296264925
Li  5.7043218680  2.7747033265  9.4298040200
Li  10.5863122855  6.1754952595  -0.7424868815
Li  -3.6869745710  8.6983172220  12.0690829350
Li  4.3008615160  4.9585313085  2.1297493035
Si  4.9433158530  4.0629992725  15.6631743800
Si  9.1102929785  1.2682101600  4.2141296785
Si  9.9438579730  7.0710272710  5.6355897640
Si  0.3343143335  7.3146843280  -2.3186735810
Si  12.1693971070  2.6867890700  9.1303711205
Si  5.7768808475  9.8658164080  -2.8268672565
Si  2.7177767190  8.4472374980  12.1683930235
Si  14.5528594925  3.8193422400  3.7059360030
