4
scale = 0.75000
Li  0.0000000000  0.0000000000  0.0000000000
Sm  -0.0000000000  1.8600423750  1.8600423750
Sm  1.8600423750  0.0000000000  1.8600423750
Sm  1.8600423750  1.8600423750  0.0000000000
4
scale = 0.80000
Li  0.0000000000  0.0000000000  0.0000000000
Sm  -0.0000000000  1.9840452000  1.9840452000
Sm  1.9840452000  0.0000000000  1.9840452000
Sm  1.9840452000  1.9840452000  0.0000000000
4
scale = 0.85000
Li  0.0000000000  0.0000000000  0.0000000000
Sm  -0.0000000000  2.1080480250  2.1080480250
Sm  2.1080480250  0.0000000000  2.1080480250
Sm  2.1080480250  2.1080480250  0.0000000000
4
scale = 0.90000
Li  0.0000000000  0.0000000000  0.0000000000
Sm  -0.0000000000  2.2320508500  2.2320508500
Sm  2.2320508500  0.0000000000  2.2320508500
Sm  2.2320508500  2.2320508500  0.0000000000
4
scale = 0.95000
Li  0.0000000000  0.0000000000  0.0000000000
Sm  -0.0000000000  2.3560536750  2.3560536750
Sm  2.3560536750  0.0000000000  2.3560536750
Sm  2.3560536750  2.3560536750  0.0000000000
4
scale = 1.00000
Li  0.0000000000  0.0000000000  0.0000000000
Sm  -0.0000000000  2.4800565000  2.4800565000
Sm  2.4800565000  0.0000000000  2.4800565000
Sm  2.4800565000  2.4800565000  0.0000000000
4
scale = 1.05000
Li  0.0000000000  0.0000000000  0.0000000000
Sm  -0.0000000000  2.6040593250  2.6040593250
Sm  2.6040593250  0.0000000000  2.6040593250
Sm  2.6040593250  2.6040593250  0.0000000000
4
scale = 1.10000
Li  0.0000000000  0.0000000000  0.0000000000
Sm  -0.0000000000  2.7280621500  2.7280621500
Sm  2.7280621500  0.0000000000  2.7280621500
Sm  2.7280621500  2.7280621500  0.0000000000
4
scale = 1.15000
Li  0.0000000000  0.0000000000  0.0000000000
Sm  -0.0000000000  2.8520649750  2.8520649750
Sm  2.8520649750  0.0000000000  2.8520649750
Sm  2.8520649750  2.8520649750  0.0000000000
4
scale = 1.20000
Li  0.0000000000  0.0000000000  0.0000000000
Sm  -0.0000000000  2.9760678000  2.9760678000
Sm  2.9760678000  0.0000000000  2.9760678000
Sm  2.9760678000  2.9760678000  0.0000000000
4
scale = 1.25000
Li  0.0000000000  0.0000000000  0.0000000000
Sm  -0.0000000000  3.1000706250  3.1000706250
Sm  3.1000706250  0.0000000000  3.1000706250
Sm  3.1000706250  3.1000706250  0.0000000000
4
scale = 1.30000
Li  0.0000000000  0.0000000000  0.0000000000
Sm  -0.0000000000  3.2240734500  3.2240734500
Sm  3.2240734500  0.0000000000  3.2240734500
Sm  3.2240734500  3.2240734500  0.0000000000
4
scale = 1.35000
Li  0.0000000000  0.0000000000  0.0000000000
Sm  -0.0000000000  3.3480762750  3.3480762750
Sm  3.3480762750  0.0000000000  3.3480762750
Sm  3.3480762750  3.3480762750  0.0000000000
4
scale = 1.40000
Li  0.0000000000  0.0000000000  0.0000000000
Sm  -0.0000000000  3.4720791000  3.4720791000
Sm  3.4720791000  0.0000000000  3.4720791000
Sm  3.4720791000  3.4720791000  0.0000000000
4
scale = 1.45000
Li  0.0000000000  0.0000000000  0.0000000000
Sm  -0.0000000000  3.5960819250  3.5960819250
Sm  3.5960819250  0.0000000000  3.5960819250
Sm  3.5960819250  3.5960819250  0.0000000000
4
scale = 1.50000
Li  0.0000000000  0.0000000000  0.0000000000
Sm  -0.0000000000  3.7200847500  3.7200847500
Sm  3.7200847500  0.0000000000  3.7200847500
Sm  3.7200847500  3.7200847500  0.0000000000
4
scale = 1.55000
Li  0.0000000000  0.0000000000  0.0000000000
Sm  -0.0000000000  3.8440875750  3.8440875750
Sm  3.8440875750  0.0000000000  3.8440875750
Sm  3.8440875750  3.8440875750  0.0000000000
4
scale = 1.60000
Li  0.0000000000  0.0000000000  0.0000000000
Sm  -0.0000000000  3.9680904000  3.9680904000
Sm  3.9680904000  0.0000000000  3.9680904000
Sm  3.9680904000  3.9680904000  0.0000000000
4
scale = 1.65000
Li  0.0000000000  0.0000000000  0.0000000000
Sm  -0.0000000000  4.0920932250  4.0920932250
Sm  4.0920932250  0.0000000000  4.0920932250
Sm  4.0920932250  4.0920932250  0.0000000000
4
scale = 1.70000
Li  0.0000000000  0.0000000000  0.0000000000
Sm  -0.0000000000  4.2160960500  4.2160960500
Sm  4.2160960500  0.0000000000  4.2160960500
Sm  4.2160960500  4.2160960500  0.0000000000
4
scale = 1.75000
Li  0.0000000000  0.0000000000  0.0000000000
Sm  -0.0000000000  4.3400988750  4.3400988750
Sm  4.3400988750  0.0000000000  4.3400988750
Sm  4.3400988750  4.3400988750  0.0000000000
4
scale = 1.80000
Li  0.0000000000  0.0000000000  0.0000000000
Sm  -0.0000000000  4.4641017000  4.4641017000
Sm  4.4641017000  0.0000000000  4.4641017000
Sm  4.4641017000  4.4641017000  0.0000000000
4
scale = 1.85000
Li  0.0000000000  0.0000000000  0.0000000000
Sm  -0.0000000000  4.5881045250  4.5881045250
Sm  4.5881045250  0.0000000000  4.5881045250
Sm  4.5881045250  4.5881045250  0.0000000000
4
scale = 1.90000
Li  0.0000000000  0.0000000000  0.0000000000
Sm  -0.0000000000  4.7121073500  4.7121073500
Sm  4.7121073500  0.0000000000  4.7121073500
Sm  4.7121073500  4.7121073500  0.0000000000
4
scale = 1.95000
Li  0.0000000000  0.0000000000  0.0000000000
Sm  -0.0000000000  4.8361101750  4.8361101750
Sm  4.8361101750  0.0000000000  4.8361101750
Sm  4.8361101750  4.8361101750  0.0000000000
4
scale = 2.00000
Li  0.0000000000  0.0000000000  0.0000000000
Sm  -0.0000000000  4.9601130000  4.9601130000
Sm  4.9601130000  0.0000000000  4.9601130000
Sm  4.9601130000  4.9601130000  0.0000000000
4
scale = 2.05000
Li  0.0000000000  0.0000000000  0.0000000000
Sm  -0.0000000000  5.0841158250  5.0841158250
Sm  5.0841158250  0.0000000000  5.0841158250
Sm  5.0841158250  5.0841158250  0.0000000000
4
scale = 2.10000
Li  0.0000000000  0.0000000000  0.0000000000
Sm  -0.0000000000  5.2081186500  5.2081186500
Sm  5.2081186500  0.0000000000  5.2081186500
Sm  5.2081186500  5.2081186500  0.0000000000
4
scale = 2.15000
Li  0.0000000000  0.0000000000  0.0000000000
Sm  -0.0000000000  5.3321214750  5.3321214750
Sm  5.3321214750  0.0000000000  5.3321214750
Sm  5.3321214750  5.3321214750  0.0000000000
4
scale = 2.20000
Li  0.0000000000  0.0000000000  0.0000000000
Sm  -0.0000000000  5.4561243000  5.4561243000
Sm  5.4561243000  0.0000000000  5.4561243000
Sm  5.4561243000  5.4561243000  0.0000000000
4
scale = 2.25000
Li  0.0000000000  0.0000000000  0.0000000000
Sm  -0.0000000000  5.5801271250  5.5801271250
Sm  5.5801271250  0.0000000000  5.5801271250
Sm  5.5801271250  5.5801271250  0.0000000000
4
scale = 2.30000
Li  0.0000000000  0.0000000000  0.0000000000
Sm  -0.0000000000  5.7041299500  5.7041299500
Sm  5.7041299500  0.0000000000  5.7041299500
Sm  5.7041299500  5.7041299500  0.0000000000
4
scale = 2.35000
Li  0.0000000000  0.0000000000  0.0000000000
Sm  -0.0000000000  5.8281327750  5.8281327750
Sm  5.8281327750  0.0000000000  5.8281327750
Sm  5.8281327750  5.8281327750  0.0000000000
4
scale = 2.40000
Li  0.0000000000  0.0000000000  0.0000000000
Sm  -0.0000000000  5.9521356000  5.9521356000
Sm  5.9521356000  0.0000000000  5.9521356000
Sm  5.9521356000  5.9521356000  0.0000000000
4
scale = 2.45000
Li  0.0000000000  0.0000000000  0.0000000000
Sm  -0.0000000000  6.0761384250  6.0761384250
Sm  6.0761384250  0.0000000000  6.0761384250
Sm  6.0761384250  6.0761384250  0.0000000000
