12
scale = 0.75000
Li  0.0413731350  2.5780737675  5.2420081725
Li  0.8868075375  1.7589414975  0.2838993675
Li  3.1276351200  0.6935017500  3.5467325850
Li  2.2822005150  1.5126405600  8.5048501725
Li  0.3702473625  1.2265507725  7.1552319675
Li  2.7987607950  2.0450280075  1.6335181350
Sn  1.9538633325  2.8639479525  6.5932251750
Sn  1.2151448250  0.4076308350  2.1955249275
Sn  0.5683951650  3.1236967800  8.3522653500
Sn  1.4150640375  2.3027835000  3.3931621575
Sn  2.6006129925  0.1478820000  0.4364946675
Sn  1.7539409475  0.9687920175  5.3955890700
12
scale = 0.80000
Li  0.0441313440  2.7499453520  5.5914753840
Li  0.9459280400  1.8762042640  0.3028259920
Li  3.3361441280  0.7397352000  3.7831814240
Li  2.4343472160  1.6134832640  9.0718401840
Li  0.3949305200  1.3083208240  7.6322474320
Li  2.9853448480  2.1813632080  1.7424193440
Sn  2.0841208880  3.0548778160  7.0327735200
Sn  1.2961544800  0.4348062240  2.3418932560
Sn  0.6062881760  3.3319432320  8.9090830400
Sn  1.5094016400  2.4563024000  3.6193729680
Sn  2.7739871920  0.1577408000  0.4655943120
Sn  1.8708703440  1.0333781520  5.7552950080
12
scale = 0.85000
Li  0.0468895530  2.9218169365  5.9409425955
Li  1.0050485425  1.9934670305  0.3217526165
Li  3.5446531360  0.7859686500  4.0196302630
Li  2.5864939170  1.7143259680  9.6388301955
Li  0.4196136775  1.3900908755  8.1092628965
Li  3.1719289010  2.3176984085  1.8513205530
Sn  2.2143784435  3.2458076795  7.4723218650
Sn  1.3771641350  0.4619816130  2.4882615845
Sn  0.6441811870  3.5401896840  9.4659007300
Sn  1.6037392425  2.6098213000  3.8455837785
Sn  2.9473613915  0.1675996000  0.4946939565
Sn  1.9877997405  1.0979642865  6.1150009460
12
scale = 0.90000
Li  0.0496477620  3.0936885210  6.2904098070
Li  1.0641690450  2.1107297970  0.3406792410
Li  3.7531621440  0.8322021000  4.2560791020
Li  2.7386406180  1.8151686720  10.2058202070
Li  0.4442968350  1.4718609270  8.5862783610
Li  3.3585129540  2.4540336090  1.9602217620
Sn  2.3446359990  3.4367375430  7.9118702100
Sn  1.4581737900  0.4891570020  2.6346299130
Sn  0.6820741980  3.7484361360  10.0227184200
Sn  1.6980768450  2.7633402000  4.0717945890
Sn  3.1207355910  0.1774584000  0.5237936010
Sn  2.1047291370  1.1625504210  6.4747068840
12
scale = 0.95000
Li  0.0524059710  3.2655601055  6.6398770185
Li  1.1232895475  2.2279925635  0.3596058655
Li  3.9616711520  0.8784355500  4.4925279410
Li  2.8907873190  1.9160113760  10.7728102185
Li  0.4689799925  1.5536309785  9.0632938255
Li  3.5450970070  2.5903688095  2.0691229710
Sn  2.4748935545  3.6276674065  8.3514185550
Sn  1.5391834450  0.5163323910  2.7809982415
Sn  0.7199672090  3.9566825880  10.5795361100
Sn  1.7924144475  2.9168591000  4.2980053995
Sn  3.2941097905  0.1873172000  0.5528932455
Sn  2.2216585335  1.2271365555  6.8344128220
12
scale = 1.00000
Li  0.0551641800  3.4374316900  6.9893442300
Li  1.1824100500  2.3452553300  0.3785324900
Li  4.1701801600  0.9246690000  4.7289767800
Li  3.0429340200  2.0168540800  11.3398002300
Li  0.4936631500  1.6354010300  9.5403092900
Li  3.7316810600  2.7267040100  2.1780241800
Sn  2.6051511100  3.8185972700  8.7909669000
Sn  1.6201931000  0.5435077800  2.9273665700
Sn  0.7578602200  4.1649290400  11.1363538000
Sn  1.8867520500  3.0703780000  4.5242162100
Sn  3.4674839900  0.1971760000  0.5819928900
Sn  2.3385879300  1.2917226900  7.1941187600
12
scale = 1.05000
Li  0.0579223890  3.6093032745  7.3388114415
Li  1.2415305525  2.4625180965  0.3974591145
Li  4.3786891680  0.9709024500  4.9654256190
Li  3.1950807210  2.1176967840  11.9067902415
Li  0.5183463075  1.7171710815  10.0173247545
Li  3.9182651130  2.8630392105  2.2869253890
Sn  2.7354086655  4.0095271335  9.2305152450
Sn  1.7012027550  0.5706831690  3.0737348985
Sn  0.7957532310  4.3731754920  11.6931714900
Sn  1.9810896525  3.2238969000  4.7504270205
Sn  3.6408581895  0.2070348000  0.6110925345
Sn  2.4555173265  1.3563088245  7.5538246980
12
scale = 1.10000
Li  0.0606805980  3.7811748590  7.6882786530
Li  1.3006510550  2.5797808630  0.4163857390
Li  4.5871981760  1.0171359000  5.2018744580
Li  3.3472274220  2.2185394880  12.4737802530
Li  0.5430294650  1.7989411330  10.4943402190
Li  4.1048491660  2.9993744110  2.3958265980
Sn  2.8656662210  4.2004569970  9.6700635900
Sn  1.7822124100  0.5978585580  3.2201032270
Sn  0.8336462420  4.5814219440  12.2499891800
Sn  2.0754272550  3.3774158000  4.9766378310
Sn  3.8142323890  0.2168936000  0.6401921790
Sn  2.5724467230  1.4208949590  7.9135306360
12
scale = 1.15000
Li  0.0634388070  3.9530464435  8.0377458645
Li  1.3597715575  2.6970436295  0.4353123635
Li  4.7957071840  1.0633693500  5.4383232970
Li  3.4993741230  2.3193821920  13.0407702645
Li  0.5677126225  1.8807111845  10.9713556835
Li  4.2914332190  3.1357096115  2.5047278070
Sn  2.9959237765  4.3913868605  10.1096119350
Sn  1.8632220650  0.6250339470  3.3664715555
Sn  0.8715392530  4.7896683960  12.8068068700
Sn  2.1697648575  3.5309347000  5.2028486415
Sn  3.9876065885  0.2267524000  0.6692918235
Sn  2.6893761195  1.4854810935  8.2732365740
12
scale = 1.20000
Li  0.0661970160  4.1249180280  8.3872130760
Li  1.4188920600  2.8143063960  0.4542389880
Li  5.0042161920  1.1096028000  5.6747721360
Li  3.6515208240  2.4202248960  13.6077602760
Li  0.5923957800  1.9624812360  11.4483711480
Li  4.4780172720  3.2720448120  2.6136290160
Sn  3.1261813320  4.5823167240  10.5491602800
Sn  1.9442317200  0.6522093360  3.5128398840
Sn  0.9094322640  4.9979148480  13.3636245600
Sn  2.2641024600  3.6844536000  5.4290594520
Sn  4.1609807880  0.2366112000  0.6983914680
Sn  2.8063055160  1.5500672280  8.6329425120
12
scale = 1.25000
Li  0.0689552250  4.2967896125  8.7366802875
Li  1.4780125625  2.9315691625  0.4731656125
Li  5.2127252000  1.1558362500  5.9112209750
Li  3.8036675250  2.5210676000  14.1747502875
Li  0.6170789375  2.0442512875  11.9253866125
Li  4.6646013250  3.4083800125  2.7225302250
Sn  3.2564388875  4.7732465875  10.9887086250
Sn  2.0252413750  0.6793847250  3.6592082125
Sn  0.9473252750  5.2061613000  13.9204422500
Sn  2.3584400625  3.8379725000  5.6552702625
Sn  4.3343549875  0.2464700000  0.7274911125
Sn  2.9232349125  1.6146533625  8.9926484500
12
scale = 1.30000
Li  0.0717134340  4.4686611970  9.0861474990
Li  1.5371330650  3.0488319290  0.4920922370
Li  5.4212342080  1.2020697000  6.1476698140
Li  3.9558142260  2.6219103040  14.7417402990
Li  0.6417620950  2.1260213390  12.4024020770
Li  4.8511853780  3.5447152130  2.8314314340
Sn  3.3866964430  4.9641764510  11.4282569700
Sn  2.1062510300  0.7065601140  3.8055765410
Sn  0.9852182860  5.4144077520  14.4772599400
Sn  2.4527776650  3.9914914000  5.8814810730
Sn  4.5077291870  0.2563288000  0.7565907570
Sn  3.0401643090  1.6792394970  9.3523543880
12
scale = 1.35000
Li  0.0744716430  4.6405327815  9.4356147105
Li  1.5962535675  3.1660946955  0.5110188615
Li  5.6297432160  1.2483031500  6.3841186530
Li  4.1079609270  2.7227530080  15.3087303105
Li  0.6664452525  2.2077913905  12.8794175415
Li  5.0377694310  3.6810504135  2.9403326430
Sn  3.5169539985  5.1551063145  11.8678053150
Sn  2.1872606850  0.7337355030  3.9519448695
Sn  1.0231112970  5.6226542040  15.0340776300
Sn  2.5471152675  4.1450103000  6.1076918835
Sn  4.6811033865  0.2661876000  0.7856904015
Sn  3.1570937055  1.7438256315  9.7120603260
12
scale = 1.40000
Li  0.0772298520  4.8124043660  9.7850819220
Li  1.6553740700  3.2833574620  0.5299454860
Li  5.8382522240  1.2945366000  6.6205674920
Li  4.2601076280  2.8235957120  15.8757203220
Li  0.6911284100  2.2895614420  13.3564330060
Li  5.2243534840  3.8173856140  3.0492338520
Sn  3.6472115540  5.3460361780  12.3073536600
Sn  2.2682703400  0.7609108920  4.0983131980
Sn  1.0610043080  5.8309006560  15.5908953200
Sn  2.6414528700  4.2985292000  6.3339026940
Sn  4.8544775860  0.2760464000  0.8147900460
Sn  3.2740231020  1.8084117660  10.0717662640
12
scale = 1.45000
Li  0.0799880610  4.9842759505  10.1345491335
Li  1.7144945725  3.4006202285  0.5488721105
Li  6.0467612320  1.3407700500  6.8570163310
Li  4.4122543290  2.9244384160  16.4427103335
Li  0.7158115675  2.3713314935  13.8334484705
Li  5.4109375370  3.9537208145  3.1581350610
Sn  3.7774691095  5.5369660415  12.7469020050
Sn  2.3492799950  0.7880862810  4.2446815265
Sn  1.0988973190  6.0391471080  16.1477130100
Sn  2.7357904725  4.4520481000  6.5601135045
Sn  5.0278517855  0.2859052000  0.8438896905
Sn  3.3909524985  1.8729979005  10.4314722020
12
scale = 1.50000
Li  0.0827462700  5.1561475350  10.4840163450
Li  1.7736150750  3.5178829950  0.5677987350
Li  6.2552702400  1.3870035000  7.0934651700
Li  4.5644010300  3.0252811200  17.0097003450
Li  0.7404947250  2.4531015450  14.3104639350
Li  5.5975215900  4.0900560150  3.2670362700
Sn  3.9077266650  5.7278959050  13.1864503500
Sn  2.4302896500  0.8152616700  4.3910498550
Sn  1.1367903300  6.2473935600  16.7045307000
Sn  2.8301280750  4.6055670000  6.7863243150
Sn  5.2012259850  0.2957640000  0.8729893350
Sn  3.5078818950  1.9375840350  10.7911781400
12
scale = 1.55000
Li  0.0855044790  5.3280191195  10.8334835565
Li  1.8327355775  3.6351457615  0.5867253595
Li  6.4637792480  1.4332369500  7.3299140090
Li  4.7165477310  3.1261238240  17.5766903565
Li  0.7651778825  2.5348715965  14.7874793995
Li  5.7841056430  4.2263912155  3.3759374790
Sn  4.0379842205  5.9188257685  13.6259986950
Sn  2.5112993050  0.8424370590  4.5374181835
Sn  1.1746833410  6.4556400120  17.2613483900
Sn  2.9244656775  4.7590859000  7.0125351255
Sn  5.3746001845  0.3056228000  0.9020889795
Sn  3.6248112915  2.0021701695  11.1508840780
12
scale = 1.60000
Li  0.0882626880  5.4998907040  11.1829507680
Li  1.8918560800  3.7524085280  0.6056519840
Li  6.6722882560  1.4794704000  7.5663628480
Li  4.8686944320  3.2269665280  18.1436803680
Li  0.7898610400  2.6166416480  15.2644948640
Li  5.9706896960  4.3627264160  3.4848386880
Sn  4.1682417760  6.1097556320  14.0655470400
Sn  2.5923089600  0.8696124480  4.6837865120
Sn  1.2125763520  6.6638864640  17.8181660800
Sn  3.0188032800  4.9126048000  7.2387459360
Sn  5.5479743840  0.3154816000  0.9311886240
Sn  3.7417406880  2.0667563040  11.5105900160
12
scale = 1.65000
Li  0.0910208970  5.6717622885  11.5324179795
Li  1.9509765825  3.8696712945  0.6245786085
Li  6.8807972640  1.5257038500  7.8028116870
Li  5.0208411330  3.3278092320  18.7106703795
Li  0.8145441975  2.6984116995  15.7415103285
Li  6.1572737490  4.4990616165  3.5937398970
Sn  4.2984993315  6.3006854955  14.5050953850
Sn  2.6733186150  0.8967878370  4.8301548405
Sn  1.2504693630  6.8721329160  18.3749837700
Sn  3.1131408825  5.0661237000  7.4649567465
Sn  5.7213485835  0.3253404000  0.9602882685
Sn  3.8586700845  2.1313424385  11.8702959540
12
scale = 1.70000
Li  0.0937791060  5.8436338730  11.8818851910
Li  2.0100970850  3.9869340610  0.6435052330
Li  7.0893062720  1.5719373000  8.0392605260
Li  5.1729878340  3.4286519360  19.2776603910
Li  0.8392273550  2.7801817510  16.2185257930
Li  6.3438578020  4.6353968170  3.7026411060
Sn  4.4287568870  6.4916153590  14.9446437300
Sn  2.7543282700  0.9239632260  4.9765231690
Sn  1.2883623740  7.0803793680  18.9318014600
Sn  3.2074784850  5.2196426000  7.6911675570
Sn  5.8947227830  0.3351992000  0.9893879130
Sn  3.9755994810  2.1959285730  12.2300018920
12
scale = 1.75000
Li  0.0965373150  6.0155054575  12.2313524025
Li  2.0692175875  4.1041968275  0.6624318575
Li  7.2978152800  1.6181707500  8.2757093650
Li  5.3251345350  3.5294946400  19.8446504025
Li  0.8639105125  2.8619518025  16.6955412575
Li  6.5304418550  4.7717320175  3.8115423150
Sn  4.5590144425  6.6825452225  15.3841920750
Sn  2.8353379250  0.9511386150  5.1228914975
Sn  1.3262553850  7.2886258200  19.4886191500
Sn  3.3018160875  5.3731615000  7.9173783675
Sn  6.0680969825  0.3450580000  1.0184875575
Sn  4.0925288775  2.2605147075  12.5897078300
12
scale = 1.80000
Li  0.0992955240  6.1873770420  12.5808196140
Li  2.1283380900  4.2214595940  0.6813584820
Li  7.5063242880  1.6644042000  8.5121582040
Li  5.4772812360  3.6303373440  20.4116404140
Li  0.8885936700  2.9437218540  17.1725567220
Li  6.7170259080  4.9080672180  3.9204435240
Sn  4.6892719980  6.8734750860  15.8237404200
Sn  2.9163475800  0.9783140040  5.2692598260
Sn  1.3641483960  7.4968722720  20.0454368400
Sn  3.3961536900  5.5266804000  8.1435891780
Sn  6.2414711820  0.3549168000  1.0475872020
Sn  4.2094582740  2.3251008420  12.9494137680
12
scale = 1.85000
Li  0.1020537330  6.3592486265  12.9302868255
Li  2.1874585925  4.3387223605  0.7002851065
Li  7.7148332960  1.7106376500  8.7486070430
Li  5.6294279370  3.7311800480  20.9786304255
Li  0.9132768275  3.0254919055  17.6495721865
Li  6.9036099610  5.0444024185  4.0293447330
Sn  4.8195295535  7.0644049495  16.2632887650
Sn  2.9973572350  1.0054893930  5.4156281545
Sn  1.4020414070  7.7051187240  20.6022545300
Sn  3.4904912925  5.6801993000  8.3697999885
Sn  6.4148453815  0.3647756000  1.0766868465
Sn  4.3263876705  2.3896869765  13.3091197060
12
scale = 1.90000
Li  0.1048119420  6.5311202110  13.2797540370
Li  2.2465790950  4.4559851270  0.7192117310
Li  7.9233423040  1.7568711000  8.9850558820
Li  5.7815746380  3.8320227520  21.5456204370
Li  0.9379599850  3.1072619570  18.1265876510
Li  7.0901940140  5.1807376190  4.1382459420
Sn  4.9497871090  7.2553348130  16.7028371100
Sn  3.0783668900  1.0326647820  5.5619964830
Sn  1.4399344180  7.9133651760  21.1590722200
Sn  3.5848288950  5.8337182000  8.5960107990
Sn  6.5882195810  0.3746344000  1.1057864910
Sn  4.4433170670  2.4542731110  13.6688256440
12
scale = 1.95000
Li  0.1075701510  6.7029917955  13.6292212485
Li  2.3056995975  4.5732478935  0.7381383555
Li  8.1318513120  1.8031045500  9.2215047210
Li  5.9337213390  3.9328654560  22.1126104485
Li  0.9626431425  3.1890320085  18.6036031155
Li  7.2767780670  5.3170728195  4.2471471510
Sn  5.0800446645  7.4462646765  17.1423854550
Sn  3.1593765450  1.0598401710  5.7083648115
Sn  1.4778274290  8.1216116280  21.7158899100
Sn  3.6791664975  5.9872371000  8.8222216095
Sn  6.7615937805  0.3844932000  1.1348861355
Sn  4.5602464635  2.5188592455  14.0285315820
12
scale = 2.00000
Li  0.1103283600  6.8748633800  13.9786884600
Li  2.3648201000  4.6905106600  0.7570649800
Li  8.3403603200  1.8493380000  9.4579535600
Li  6.0858680400  4.0337081600  22.6796004600
Li  0.9873263000  3.2708020600  19.0806185800
Li  7.4633621200  5.4534080200  4.3560483600
Sn  5.2103022200  7.6371945400  17.5819338000
Sn  3.2403862000  1.0870155600  5.8547331400
Sn  1.5157204400  8.3298580800  22.2727076000
Sn  3.7735041000  6.1407560000  9.0484324200
Sn  6.9349679800  0.3943520000  1.1639857800
Sn  4.6771758600  2.5834453800  14.3882375200
12
scale = 2.05000
Li  0.1130865690  7.0467349645  14.3281556715
Li  2.4239406025  4.8077734265  0.7759916045
Li  8.5488693280  1.8955714500  9.6944023990
Li  6.2380147410  4.1345508640  23.2465904715
Li  1.0120094575  3.3525721115  19.5576340445
Li  7.6499461730  5.5897432205  4.4649495690
Sn  5.3405597755  7.8281244035  18.0214821450
Sn  3.3213958550  1.1141909490  6.0011014685
Sn  1.5536134510  8.5381045320  22.8295252900
Sn  3.8678417025  6.2942749000  9.2746432305
Sn  7.1083421795  0.4042108000  1.1930854245
Sn  4.7941052565  2.6480315145  14.7479434580
12
scale = 2.10000
Li  0.1158447780  7.2186065490  14.6776228830
Li  2.4830611050  4.9250361930  0.7949182290
Li  8.7573783360  1.9418049000  9.9308512380
Li  6.3901614420  4.2353935680  23.8135804830
Li  1.0366926150  3.4343421630  20.0346495090
Li  7.8365302260  5.7260784210  4.5738507780
Sn  5.4708173310  8.0190542670  18.4610304900
Sn  3.4024055100  1.1413663380  6.1474697970
Sn  1.5915064620  8.7463509840  23.3863429800
Sn  3.9621793050  6.4477938000  9.5008540410
Sn  7.2817163790  0.4140696000  1.2221850690
Sn  4.9110346530  2.7126176490  15.1076493960
12
scale = 2.15000
Li  0.1186029870  7.3904781335  15.0270900945
Li  2.5421816075  5.0422989595  0.8138448535
Li  8.9658873440  1.9880383500  10.1673000770
Li  6.5423081430  4.3362362720  24.3805704945
Li  1.0613757725  3.5161122145  20.5116649735
Li  8.0231142790  5.8624136215  4.6827519870
Sn  5.6010748865  8.2099841305  18.9005788350
Sn  3.4834151650  1.1685417270  6.2938381255
Sn  1.6293994730  8.9545974360  23.9431606700
Sn  4.0565169075  6.6013127000  9.7270648515
Sn  7.4550905785  0.4239284000  1.2512847135
Sn  5.0279640495  2.7772037835  15.4673553340
12
scale = 2.20000
Li  0.1213611960  7.5623497180  15.3765573060
Li  2.6013021100  5.1595617260  0.8327714780
Li  9.1743963520  2.0342718000  10.4037489160
Li  6.6944548440  4.4370789760  24.9475605060
Li  1.0860589300  3.5978822660  20.9886804380
Li  8.2096983320  5.9987488220  4.7916531960
Sn  5.7313324420  8.4009139940  19.3401271800
Sn  3.5644248200  1.1957171160  6.4402064540
Sn  1.6672924840  9.1628438880  24.4999783600
Sn  4.1508545100  6.7548316000  9.9532756620
Sn  7.6284647780  0.4337872000  1.2803843580
Sn  5.1448934460  2.8417899180  15.8270612720
12
scale = 2.25000
Li  0.1241194050  7.7342213025  15.7260245175
Li  2.6604226125  5.2768244925  0.8516981025
Li  9.3829053600  2.0805052500  10.6401977550
Li  6.8466015450  4.5379216800  25.5145505175
Li  1.1107420875  3.6796523175  21.4656959025
Li  8.3962823850  6.1350840225  4.9005544050
Sn  5.8615899975  8.5918438575  19.7796755250
Sn  3.6454344750  1.2228925050  6.5865747825
Sn  1.7051854950  9.3710903400  25.0567960500
Sn  4.2451921125  6.9083505000  10.1794864725
Sn  7.8018389775  0.4436460000  1.3094840025
Sn  5.2618228425  2.9063760525  16.1867672100
12
scale = 2.30000
Li  0.1268776140  7.9060928870  16.0754917290
Li  2.7195431150  5.3940872590  0.8706247270
Li  9.5914143680  2.1267387000  10.8766465940
Li  6.9987482460  4.6387643840  26.0815405290
Li  1.1354252450  3.7614223690  21.9427113670
Li  8.5828664380  6.2714192230  5.0094556140
Sn  5.9918475530  8.7827737210  20.2192238700
Sn  3.7264441300  1.2500678940  6.7329431110
Sn  1.7430785060  9.5793367920  25.6136137400
Sn  4.3395297150  7.0618694000  10.4056972830
Sn  7.9752131770  0.4535048000  1.3385836470
Sn  5.3787522390  2.9709621870  16.5464731480
12
scale = 2.35000
Li  0.1296358230  8.0779644715  16.4249589405
Li  2.7786636175  5.5113500255  0.8895513515
Li  9.7999233760  2.1729721500  11.1130954330
Li  7.1508949470  4.7396070880  26.6485305405
Li  1.1601084025  3.8431924205  22.4197268315
Li  8.7694504910  6.4077544235  5.1183568230
Sn  6.1221051085  8.9737035845  20.6587722150
Sn  3.8074537850  1.2772432830  6.8793114395
Sn  1.7809715170  9.7875832440  26.1704314300
Sn  4.4338673175  7.2153883000  10.6319080935
Sn  8.1485873765  0.4633636000  1.3676832915
Sn  5.4956816355  3.0355483215  16.9061790860
12
scale = 2.40000
Li  0.1323940320  8.2498360560  16.7744261520
Li  2.8377841200  5.6286127920  0.9084779760
Li  10.0084323840  2.2192056000  11.3495442720
Li  7.3030416480  4.8404497920  27.2155205520
Li  1.1847915600  3.9249624720  22.8967422960
Li  8.9560345440  6.5440896240  5.2272580320
Sn  6.2523626640  9.1646334480  21.0983205600
Sn  3.8884634400  1.3044186720  7.0256797680
Sn  1.8188645280  9.9958296960  26.7272491200
Sn  4.5282049200  7.3689072000  10.8581189040
Sn  8.3219615760  0.4732224000  1.3967829360
Sn  5.6126110320  3.1001344560  17.2658850240
12
scale = 2.45000
Li  0.1351522410  8.4217076405  17.1238933635
Li  2.8969046225  5.7458755585  0.9274046005
Li  10.2169413920  2.2654390500  11.5859931110
Li  7.4551883490  4.9412924960  27.7825105635
Li  1.2094747175  4.0067325235  23.3737577605
Li  9.1426185970  6.6804248245  5.3361592410
Sn  6.3826202195  9.3555633115  21.5378689050
Sn  3.9694730950  1.3315940610  7.1720480965
Sn  1.8567575390  10.2040761480  27.2840668100
Sn  4.6225425225  7.5224261000  11.0843297145
Sn  8.4953357755  0.4830812000  1.4258825805
Sn  5.7295404285  3.1647205905  17.6255909620
