8
scale = 0.75000
Li  2.6344958250  1.5210268725  1.0402501875
Li  -0.0000002925  3.0420537450  3.1207505625
Tb  3.9334762875  0.7710602400  3.1207505625
Tb  1.3355155050  0.7710602400  3.1207505625
Tb  2.6344956825  3.0209601450  3.1207505625
Tb  -1.2989807550  3.7920203850  1.0402501875
Tb  1.2989800275  3.7920203850  1.0402501875
Tb  -0.0000001500  1.5421204725  1.0402501875
8
scale = 0.80000
Li  2.8101288800  1.6224286640  1.1096002000
Li  -0.0000003120  3.2448573280  3.3288006000
Tb  4.1957080400  0.8224642560  3.3288006000
Tb  1.4245498720  0.8224642560  3.3288006000
Tb  2.8101287280  3.2223574880  3.3288006000
Tb  -1.3855794720  4.0448217440  1.1096002000
Tb  1.3855786960  4.0448217440  1.1096002000
Tb  -0.0000001600  1.6449285040  1.1096002000
8
scale = 0.85000
Li  2.9857619350  1.7238304555  1.1789502125
Li  -0.0000003315  3.4476609110  3.5368506375
Tb  4.4579397925  0.8738682720  3.5368506375
Tb  1.5135842390  0.8738682720  3.5368506375
Tb  2.9857617735  3.4237548310  3.5368506375
Tb  -1.4721781890  4.2976231030  1.1789502125
Tb  1.4721773645  4.2976231030  1.1789502125
Tb  -0.0000001700  1.7477365355  1.1789502125
8
scale = 0.90000
Li  3.1613949900  1.8252322470  1.2483002250
Li  -0.0000003510  3.6504644940  3.7449006750
Tb  4.7201715450  0.9252722880  3.7449006750
Tb  1.6026186060  0.9252722880  3.7449006750
Tb  3.1613948190  3.6251521740  3.7449006750
Tb  -1.5587769060  4.5504244620  1.2483002250
Tb  1.5587760330  4.5504244620  1.2483002250
Tb  -0.0000001800  1.8505445670  1.2483002250
8
scale = 0.95000
Li  3.3370280450  1.9266340385  1.3176502375
Li  -0.0000003705  3.8532680770  3.9529507125
Tb  4.9824032975  0.9766763040  3.9529507125
Tb  1.6916529730  0.9766763040  3.9529507125
Tb  3.3370278645  3.8265495170  3.9529507125
Tb  -1.6453756230  4.8032258210  1.3176502375
Tb  1.6453747015  4.8032258210  1.3176502375
Tb  -0.0000001900  1.9533525985  1.3176502375
8
scale = 1.00000
Li  3.5126611000  2.0280358300  1.3870002500
Li  -0.0000003900  4.0560716600  4.1610007500
Tb  5.2446350500  1.0280803200  4.1610007500
Tb  1.7806873400  1.0280803200  4.1610007500
Tb  3.5126609100  4.0279468600  4.1610007500
Tb  -1.7319743400  5.0560271800  1.3870002500
Tb  1.7319733700  5.0560271800  1.3870002500
Tb  -0.0000002000  2.0561606300  1.3870002500
8
scale = 1.05000
Li  3.6882941550  2.1294376215  1.4563502625
Li  -0.0000004095  4.2588752430  4.3690507875
Tb  5.5068668025  1.0794843360  4.3690507875
Tb  1.8697217070  1.0794843360  4.3690507875
Tb  3.6882939555  4.2293442030  4.3690507875
Tb  -1.8185730570  5.3088285390  1.4563502625
Tb  1.8185720385  5.3088285390  1.4563502625
Tb  -0.0000002100  2.1589686615  1.4563502625
8
scale = 1.10000
Li  3.8639272100  2.2308394130  1.5257002750
Li  -0.0000004290  4.4616788260  4.5771008250
Tb  5.7690985550  1.1308883520  4.5771008250
Tb  1.9587560740  1.1308883520  4.5771008250
Tb  3.8639270010  4.4307415460  4.5771008250
Tb  -1.9051717740  5.5616298980  1.5257002750
Tb  1.9051707070  5.5616298980  1.5257002750
Tb  -0.0000002200  2.2617766930  1.5257002750
8
scale = 1.15000
Li  4.0395602650  2.3322412045  1.5950502875
Li  -0.0000004485  4.6644824090  4.7851508625
Tb  6.0313303075  1.1822923680  4.7851508625
Tb  2.0477904410  1.1822923680  4.7851508625
Tb  4.0395600465  4.6321388890  4.7851508625
Tb  -1.9917704910  5.8144312570  1.5950502875
Tb  1.9917693755  5.8144312570  1.5950502875
Tb  -0.0000002300  2.3645847245  1.5950502875
8
scale = 1.20000
Li  4.2151933200  2.4336429960  1.6644003000
Li  -0.0000004680  4.8672859920  4.9932009000
Tb  6.2935620600  1.2336963840  4.9932009000
Tb  2.1368248080  1.2336963840  4.9932009000
Tb  4.2151930920  4.8335362320  4.9932009000
Tb  -2.0783692080  6.0672326160  1.6644003000
Tb  2.0783680440  6.0672326160  1.6644003000
Tb  -0.0000002400  2.4673927560  1.6644003000
8
scale = 1.25000
Li  4.3908263750  2.5350447875  1.7337503125
Li  -0.0000004875  5.0700895750  5.2012509375
Tb  6.5557938125  1.2851004000  5.2012509375
Tb  2.2258591750  1.2851004000  5.2012509375
Tb  4.3908261375  5.0349335750  5.2012509375
Tb  -2.1649679250  6.3200339750  1.7337503125
Tb  2.1649667125  6.3200339750  1.7337503125
Tb  -0.0000002500  2.5702007875  1.7337503125
8
scale = 1.30000
Li  4.5664594300  2.6364465790  1.8031003250
Li  -0.0000005070  5.2728931580  5.4093009750
Tb  6.8180255650  1.3365044160  5.4093009750
Tb  2.3148935420  1.3365044160  5.4093009750
Tb  4.5664591830  5.2363309180  5.4093009750
Tb  -2.2515666420  6.5728353340  1.8031003250
Tb  2.2515653810  6.5728353340  1.8031003250
Tb  -0.0000002600  2.6730088190  1.8031003250
8
scale = 1.35000
Li  4.7420924850  2.7378483705  1.8724503375
Li  -0.0000005265  5.4756967410  5.6173510125
Tb  7.0802573175  1.3879084320  5.6173510125
Tb  2.4039279090  1.3879084320  5.6173510125
Tb  4.7420922285  5.4377282610  5.6173510125
Tb  -2.3381653590  6.8256366930  1.8724503375
Tb  2.3381640495  6.8256366930  1.8724503375
Tb  -0.0000002700  2.7758168505  1.8724503375
8
scale = 1.40000
Li  4.9177255400  2.8392501620  1.9418003500
Li  -0.0000005460  5.6785003240  5.8254010500
Tb  7.3424890700  1.4393124480  5.8254010500
Tb  2.4929622760  1.4393124480  5.8254010500
Tb  4.9177252740  5.6391256040  5.8254010500
Tb  -2.4247640760  7.0784380520  1.9418003500
Tb  2.4247627180  7.0784380520  1.9418003500
Tb  -0.0000002800  2.8786248820  1.9418003500
8
scale = 1.45000
Li  5.0933585950  2.9406519535  2.0111503625
Li  -0.0000005655  5.8813039070  6.0334510875
Tb  7.6047208225  1.4907164640  6.0334510875
Tb  2.5819966430  1.4907164640  6.0334510875
Tb  5.0933583195  5.8405229470  6.0334510875
Tb  -2.5113627930  7.3312394110  2.0111503625
Tb  2.5113613865  7.3312394110  2.0111503625
Tb  -0.0000002900  2.9814329135  2.0111503625
8
scale = 1.50000
Li  5.2689916500  3.0420537450  2.0805003750
Li  -0.0000005850  6.0841074900  6.2415011250
Tb  7.8669525750  1.5421204800  6.2415011250
Tb  2.6710310100  1.5421204800  6.2415011250
Tb  5.2689913650  6.0419202900  6.2415011250
Tb  -2.5979615100  7.5840407700  2.0805003750
Tb  2.5979600550  7.5840407700  2.0805003750
Tb  -0.0000003000  3.0842409450  2.0805003750
8
scale = 1.55000
Li  5.4446247050  3.1434555365  2.1498503875
Li  -0.0000006045  6.2869110730  6.4495511625
Tb  8.1291843275  1.5935244960  6.4495511625
Tb  2.7600653770  1.5935244960  6.4495511625
Tb  5.4446244105  6.2433176330  6.4495511625
Tb  -2.6845602270  7.8368421290  2.1498503875
Tb  2.6845587235  7.8368421290  2.1498503875
Tb  -0.0000003100  3.1870489765  2.1498503875
8
scale = 1.60000
Li  5.6202577600  3.2448573280  2.2192004000
Li  -0.0000006240  6.4897146560  6.6576012000
Tb  8.3914160800  1.6449285120  6.6576012000
Tb  2.8490997440  1.6449285120  6.6576012000
Tb  5.6202574560  6.4447149760  6.6576012000
Tb  -2.7711589440  8.0896434880  2.2192004000
Tb  2.7711573920  8.0896434880  2.2192004000
Tb  -0.0000003200  3.2898570080  2.2192004000
8
scale = 1.65000
Li  5.7958908150  3.3462591195  2.2885504125
Li  -0.0000006435  6.6925182390  6.8656512375
Tb  8.6536478325  1.6963325280  6.8656512375
Tb  2.9381341110  1.6963325280  6.8656512375
Tb  5.7958905015  6.6461123190  6.8656512375
Tb  -2.8577576610  8.3424448470  2.2885504125
Tb  2.8577560605  8.3424448470  2.2885504125
Tb  -0.0000003300  3.3926650395  2.2885504125
8
scale = 1.70000
Li  5.9715238700  3.4476609110  2.3579004250
Li  -0.0000006630  6.8953218220  7.0737012750
Tb  8.9158795850  1.7477365440  7.0737012750
Tb  3.0271684780  1.7477365440  7.0737012750
Tb  5.9715235470  6.8475096620  7.0737012750
Tb  -2.9443563780  8.5952462060  2.3579004250
Tb  2.9443547290  8.5952462060  2.3579004250
Tb  -0.0000003400  3.4954730710  2.3579004250
8
scale = 1.75000
Li  6.1471569250  3.5490627025  2.4272504375
Li  -0.0000006825  7.0981254050  7.2817513125
Tb  9.1781113375  1.7991405600  7.2817513125
Tb  3.1162028450  1.7991405600  7.2817513125
Tb  6.1471565925  7.0489070050  7.2817513125
Tb  -3.0309550950  8.8480475650  2.4272504375
Tb  3.0309533975  8.8480475650  2.4272504375
Tb  -0.0000003500  3.5982811025  2.4272504375
8
scale = 1.80000
Li  6.3227899800  3.6504644940  2.4966004500
Li  -0.0000007020  7.3009289880  7.4898013500
Tb  9.4403430900  1.8505445760  7.4898013500
Tb  3.2052372120  1.8505445760  7.4898013500
Tb  6.3227896380  7.2503043480  7.4898013500
Tb  -3.1175538120  9.1008489240  2.4966004500
Tb  3.1175520660  9.1008489240  2.4966004500
Tb  -0.0000003600  3.7010891340  2.4966004500
8
scale = 1.85000
Li  6.4984230350  3.7518662855  2.5659504625
Li  -0.0000007215  7.5037325710  7.6978513875
Tb  9.7025748425  1.9019485920  7.6978513875
Tb  3.2942715790  1.9019485920  7.6978513875
Tb  6.4984226835  7.4517016910  7.6978513875
Tb  -3.2041525290  9.3536502830  2.5659504625
Tb  3.2041507345  9.3536502830  2.5659504625
Tb  -0.0000003700  3.8038971655  2.5659504625
8
scale = 1.90000
Li  6.6740560900  3.8532680770  2.6353004750
Li  -0.0000007410  7.7065361540  7.9059014250
Tb  9.9648065950  1.9533526080  7.9059014250
Tb  3.3833059460  1.9533526080  7.9059014250
Tb  6.6740557290  7.6530990340  7.9059014250
Tb  -3.2907512460  9.6064516420  2.6353004750
Tb  3.2907494030  9.6064516420  2.6353004750
Tb  -0.0000003800  3.9067051970  2.6353004750
8
scale = 1.95000
Li  6.8496891450  3.9546698685  2.7046504875
Li  -0.0000007605  7.9093397370  8.1139514625
Tb  10.2270383475  2.0047566240  8.1139514625
Tb  3.4723403130  2.0047566240  8.1139514625
Tb  6.8496887745  7.8544963770  8.1139514625
Tb  -3.3773499630  9.8592530010  2.7046504875
Tb  3.3773480715  9.8592530010  2.7046504875
Tb  -0.0000003900  4.0095132285  2.7046504875
8
scale = 2.00000
Li  7.0253222000  4.0560716600  2.7740005000
Li  -0.0000007800  8.1121433200  8.3220015000
Tb  10.4892701000  2.0561606400  8.3220015000
Tb  3.5613746800  2.0561606400  8.3220015000
Tb  7.0253218200  8.0558937200  8.3220015000
Tb  -3.4639486800  10.1120543600  2.7740005000
Tb  3.4639467400  10.1120543600  2.7740005000
Tb  -0.0000004000  4.1123212600  2.7740005000
8
scale = 2.05000
Li  7.2009552550  4.1574734515  2.8433505125
Li  -0.0000007995  8.3149469030  8.5300515375
Tb  10.7515018525  2.1075646560  8.5300515375
Tb  3.6504090470  2.1075646560  8.5300515375
Tb  7.2009548655  8.2572910630  8.5300515375
Tb  -3.5505473970  10.3648557190  2.8433505125
Tb  3.5505454085  10.3648557190  2.8433505125
Tb  -0.0000004100  4.2151292915  2.8433505125
8
scale = 2.10000
Li  7.3765883100  4.2588752430  2.9127005250
Li  -0.0000008190  8.5177504860  8.7381015750
Tb  11.0137336050  2.1589686720  8.7381015750
Tb  3.7394434140  2.1589686720  8.7381015750
Tb  7.3765879110  8.4586884060  8.7381015750
Tb  -3.6371461140  10.6176570780  2.9127005250
Tb  3.6371440770  10.6176570780  2.9127005250
Tb  -0.0000004200  4.3179373230  2.9127005250
8
scale = 2.15000
Li  7.5522213650  4.3602770345  2.9820505375
Li  -0.0000008385  8.7205540690  8.9461516125
Tb  11.2759653575  2.2103726880  8.9461516125
Tb  3.8284777810  2.2103726880  8.9461516125
Tb  7.5522209565  8.6600857490  8.9461516125
Tb  -3.7237448310  10.8704584370  2.9820505375
Tb  3.7237427455  10.8704584370  2.9820505375
Tb  -0.0000004300  4.4207453545  2.9820505375
8
scale = 2.20000
Li  7.7278544200  4.4616788260  3.0514005500
Li  -0.0000008580  8.9233576520  9.1542016500
Tb  11.5381971100  2.2617767040  9.1542016500
Tb  3.9175121480  2.2617767040  9.1542016500
Tb  7.7278540020  8.8614830920  9.1542016500
Tb  -3.8103435480  11.1232597960  3.0514005500
Tb  3.8103414140  11.1232597960  3.0514005500
Tb  -0.0000004400  4.5235533860  3.0514005500
8
scale = 2.25000
Li  7.9034874750  4.5630806175  3.1207505625
Li  -0.0000008775  9.1261612350  9.3622516875
Tb  11.8004288625  2.3131807200  9.3622516875
Tb  4.0065465150  2.3131807200  9.3622516875
Tb  7.9034870475  9.0628804350  9.3622516875
Tb  -3.8969422650  11.3760611550  3.1207505625
Tb  3.8969400825  11.3760611550  3.1207505625
Tb  -0.0000004500  4.6263614175  3.1207505625
8
scale = 2.30000
Li  8.0791205300  4.6644824090  3.1901005750
Li  -0.0000008970  9.3289648180  9.5703017250
Tb  12.0626606150  2.3645847360  9.5703017250
Tb  4.0955808820  2.3645847360  9.5703017250
Tb  8.0791200930  9.2642777780  9.5703017250
Tb  -3.9835409820  11.6288625140  3.1901005750
Tb  3.9835387510  11.6288625140  3.1901005750
Tb  -0.0000004600  4.7291694490  3.1901005750
8
scale = 2.35000
Li  8.2547535850  4.7658842005  3.2594505875
Li  -0.0000009165  9.5317684010  9.7783517625
Tb  12.3248923675  2.4159887520  9.7783517625
Tb  4.1846152490  2.4159887520  9.7783517625
Tb  8.2547531385  9.4656751210  9.7783517625
Tb  -4.0701396990  11.8816638730  3.2594505875
Tb  4.0701374195  11.8816638730  3.2594505875
Tb  -0.0000004700  4.8319774805  3.2594505875
8
scale = 2.40000
Li  8.4303866400  4.8672859920  3.3288006000
Li  -0.0000009360  9.7345719840  9.9864018000
Tb  12.5871241200  2.4673927680  9.9864018000
Tb  4.2736496160  2.4673927680  9.9864018000
Tb  8.4303861840  9.6670724640  9.9864018000
Tb  -4.1567384160  12.1344652320  3.3288006000
Tb  4.1567360880  12.1344652320  3.3288006000
Tb  -0.0000004800  4.9347855120  3.3288006000
8
scale = 2.45000
Li  8.6060196950  4.9686877835  3.3981506125
Li  -0.0000009555  9.9373755670  10.1944518375
Tb  12.8493558725  2.5187967840  10.1944518375
Tb  4.3626839830  2.5187967840  10.1944518375
Tb  8.6060192295  9.8684698070  10.1944518375
Tb  -4.2433371330  12.3872665910  3.3981506125
Tb  4.2433347565  12.3872665910  3.3981506125
Tb  -0.0000004900  5.0375935435  3.3981506125
