4
scale = 0.75000
Li  0.0000000000  0.0000000000  0.0000000000
Y   2.3317402275  0.8111987775  -1.0231976250
Y   0.4155295875  2.4335963325  -1.0231976250
Y   1.3736349075  1.6223975550  -3.3824305650
4
scale = 0.80000
Li  0.0000000000  0.0000000000  0.0000000000
Y   2.4871895760  0.8652786960  -1.0914108000
Y   0.4432315600  2.5958360880  -1.0914108000
Y   1.4652105680  1.7305573920  -3.6079259360
4
scale = 0.85000
Li  0.0000000000  0.0000000000  0.0000000000
Y   2.6426389245  0.9193586145  -1.1596239750
Y   0.4709335325  2.7580758435  -1.1596239750
Y   1.5567862285  1.8387172290  -3.8334213070
4
scale = 0.90000
Li  0.0000000000  0.0000000000  0.0000000000
Y   2.7980882730  0.9734385330  -1.2278371500
Y   0.4986355050  2.9203155990  -1.2278371500
Y   1.6483618890  1.9468770660  -4.0589166780
4
scale = 0.95000
Li  0.0000000000  0.0000000000  0.0000000000
Y   2.9535376215  1.0275184515  -1.2960503250
Y   0.5263374775  3.0825553545  -1.2960503250
Y   1.7399375495  2.0550369030  -4.2844120490
4
scale = 1.00000
Li  0.0000000000  0.0000000000  0.0000000000
Y   3.1089869700  1.0815983700  -1.3642635000
Y   0.5540394500  3.2447951100  -1.3642635000
Y   1.8315132100  2.1631967400  -4.5099074200
4
scale = 1.05000
Li  0.0000000000  0.0000000000  0.0000000000
Y   3.2644363185  1.1356782885  -1.4324766750
Y   0.5817414225  3.4070348655  -1.4324766750
Y   1.9230888705  2.2713565770  -4.7354027910
4
scale = 1.10000
Li  0.0000000000  0.0000000000  0.0000000000
Y   3.4198856670  1.1897582070  -1.5006898500
Y   0.6094433950  3.5692746210  -1.5006898500
Y   2.0146645310  2.3795164140  -4.9608981620
4
scale = 1.15000
Li  0.0000000000  0.0000000000  0.0000000000
Y   3.5753350155  1.2438381255  -1.5689030250
Y   0.6371453675  3.7315143765  -1.5689030250
Y   2.1062401915  2.4876762510  -5.1863935330
4
scale = 1.20000
Li  0.0000000000  0.0000000000  0.0000000000
Y   3.7307843640  1.2979180440  -1.6371162000
Y   0.6648473400  3.8937541320  -1.6371162000
Y   2.1978158520  2.5958360880  -5.4118889040
4
scale = 1.25000
Li  0.0000000000  0.0000000000  0.0000000000
Y   3.8862337125  1.3519979625  -1.7053293750
Y   0.6925493125  4.0559938875  -1.7053293750
Y   2.2893915125  2.7039959250  -5.6373842750
4
scale = 1.30000
Li  0.0000000000  0.0000000000  0.0000000000
Y   4.0416830610  1.4060778810  -1.7735425500
Y   0.7202512850  4.2182336430  -1.7735425500
Y   2.3809671730  2.8121557620  -5.8628796460
4
scale = 1.35000
Li  0.0000000000  0.0000000000  0.0000000000
Y   4.1971324095  1.4601577995  -1.8417557250
Y   0.7479532575  4.3804733985  -1.8417557250
Y   2.4725428335  2.9203155990  -6.0883750170
4
scale = 1.40000
Li  0.0000000000  0.0000000000  0.0000000000
Y   4.3525817580  1.5142377180  -1.9099689000
Y   0.7756552300  4.5427131540  -1.9099689000
Y   2.5641184940  3.0284754360  -6.3138703880
4
scale = 1.45000
Li  0.0000000000  0.0000000000  0.0000000000
Y   4.5080311065  1.5683176365  -1.9781820750
Y   0.8033572025  4.7049529095  -1.9781820750
Y   2.6556941545  3.1366352730  -6.5393657590
4
scale = 1.50000
Li  0.0000000000  0.0000000000  0.0000000000
Y   4.6634804550  1.6223975550  -2.0463952500
Y   0.8310591750  4.8671926650  -2.0463952500
Y   2.7472698150  3.2447951100  -6.7648611300
4
scale = 1.55000
Li  0.0000000000  0.0000000000  0.0000000000
Y   4.8189298035  1.6764774735  -2.1146084250
Y   0.8587611475  5.0294324205  -2.1146084250
Y   2.8388454755  3.3529549470  -6.9903565010
4
scale = 1.60000
Li  0.0000000000  0.0000000000  0.0000000000
Y   4.9743791520  1.7305573920  -2.1828216000
Y   0.8864631200  5.1916721760  -2.1828216000
Y   2.9304211360  3.4611147840  -7.2158518720
4
scale = 1.65000
Li  0.0000000000  0.0000000000  0.0000000000
Y   5.1298285005  1.7846373105  -2.2510347750
Y   0.9141650925  5.3539119315  -2.2510347750
Y   3.0219967965  3.5692746210  -7.4413472430
4
scale = 1.70000
Li  0.0000000000  0.0000000000  0.0000000000
Y   5.2852778490  1.8387172290  -2.3192479500
Y   0.9418670650  5.5161516870  -2.3192479500
Y   3.1135724570  3.6774344580  -7.6668426140
4
scale = 1.75000
Li  0.0000000000  0.0000000000  0.0000000000
Y   5.4407271975  1.8927971475  -2.3874611250
Y   0.9695690375  5.6783914425  -2.3874611250
Y   3.2051481175  3.7855942950  -7.8923379850
4
scale = 1.80000
Li  0.0000000000  0.0000000000  0.0000000000
Y   5.5961765460  1.9468770660  -2.4556743000
Y   0.9972710100  5.8406311980  -2.4556743000
Y   3.2967237780  3.8937541320  -8.1178333560
4
scale = 1.85000
Li  0.0000000000  0.0000000000  0.0000000000
Y   5.7516258945  2.0009569845  -2.5238874750
Y   1.0249729825  6.0028709535  -2.5238874750
Y   3.3882994385  4.0019139690  -8.3433287270
4
scale = 1.90000
Li  0.0000000000  0.0000000000  0.0000000000
Y   5.9070752430  2.0550369030  -2.5921006500
Y   1.0526749550  6.1651107090  -2.5921006500
Y   3.4798750990  4.1100738060  -8.5688240980
4
scale = 1.95000
Li  0.0000000000  0.0000000000  0.0000000000
Y   6.0625245915  2.1091168215  -2.6603138250
Y   1.0803769275  6.3273504645  -2.6603138250
Y   3.5714507595  4.2182336430  -8.7943194690
4
scale = 2.00000
Li  0.0000000000  0.0000000000  0.0000000000
Y   6.2179739400  2.1631967400  -2.7285270000
Y   1.1080789000  6.4895902200  -2.7285270000
Y   3.6630264200  4.3263934800  -9.0198148400
4
scale = 2.05000
Li  0.0000000000  0.0000000000  0.0000000000
Y   6.3734232885  2.2172766585  -2.7967401750
Y   1.1357808725  6.6518299755  -2.7967401750
Y   3.7546020805  4.4345533170  -9.2453102110
4
scale = 2.10000
Li  0.0000000000  0.0000000000  0.0000000000
Y   6.5288726370  2.2713565770  -2.8649533500
Y   1.1634828450  6.8140697310  -2.8649533500
Y   3.8461777410  4.5427131540  -9.4708055820
4
scale = 2.15000
Li  0.0000000000  0.0000000000  0.0000000000
Y   6.6843219855  2.3254364955  -2.9331665250
Y   1.1911848175  6.9763094865  -2.9331665250
Y   3.9377534015  4.6508729910  -9.6963009530
4
scale = 2.20000
Li  0.0000000000  0.0000000000  0.0000000000
Y   6.8397713340  2.3795164140  -3.0013797000
Y   1.2188867900  7.1385492420  -3.0013797000
Y   4.0293290620  4.7590328280  -9.9217963240
4
scale = 2.25000
Li  0.0000000000  0.0000000000  0.0000000000
Y   6.9952206825  2.4335963325  -3.0695928750
Y   1.2465887625  7.3007889975  -3.0695928750
Y   4.1209047225  4.8671926650  -10.1472916950
4
scale = 2.30000
Li  0.0000000000  0.0000000000  0.0000000000
Y   7.1506700310  2.4876762510  -3.1378060500
Y   1.2742907350  7.4630287530  -3.1378060500
Y   4.2124803830  4.9753525020  -10.3727870660
4
scale = 2.35000
Li  0.0000000000  0.0000000000  0.0000000000
Y   7.3061193795  2.5417561695  -3.2060192250
Y   1.3019927075  7.6252685085  -3.2060192250
Y   4.3040560435  5.0835123390  -10.5982824370
4
scale = 2.40000
Li  0.0000000000  0.0000000000  0.0000000000
Y   7.4615687280  2.5958360880  -3.2742324000
Y   1.3296946800  7.7875082640  -3.2742324000
Y   4.3956317040  5.1916721760  -10.8237778080
4
scale = 2.45000
Li  0.0000000000  0.0000000000  0.0000000000
Y   7.6170180765  2.6499160065  -3.3424455750
Y   1.3573966525  7.9497480195  -3.3424455750
Y   4.4872073645  5.2998320130  -11.0492731790
