8
scale = 0.75000
Li  0.0000002475  2.9327418375  3.1612883925
Li  2.5398289350  1.4663709225  1.0537627950
Yb  3.7998615450  0.7388906850  3.1612883925
Yb  1.2797911800  0.7388906850  3.1612883925
Yb  2.5398265425  2.9213357475  3.1612883925
Yb  -1.2600323550  3.6602220750  1.0537627950
Yb  1.2600380100  3.6602220750  1.0537627950
Yb  0.0000026400  1.4777770125  1.0537627950
8
scale = 0.80000
Li  0.0000002640  3.1282579600  3.3720409520
Li  2.7091508640  1.5641289840  1.1240136480
Yb  4.0531856480  0.7881500640  3.3720409520
Yb  1.3651105920  0.7881500640  3.3720409520
Yb  2.7091483120  3.1160914640  3.3720409520
Yb  -1.3440345120  3.9042368800  1.1240136480
Yb  1.3440405440  3.9042368800  1.1240136480
Yb  0.0000028160  1.5762954800  1.1240136480
8
scale = 0.85000
Li  0.0000002805  3.3237740825  3.5827935115
Li  2.8784727930  1.6618870455  1.1942645010
Yb  4.3065097510  0.8374094430  3.5827935115
Yb  1.4504300040  0.8374094430  3.5827935115
Yb  2.8784700815  3.3108471805  3.5827935115
Yb  -1.4280366690  4.1482516850  1.1942645010
Yb  1.4280430780  4.1482516850  1.1942645010
Yb  0.0000029920  1.6748139475  1.1942645010
8
scale = 0.90000
Li  0.0000002970  3.5192902050  3.7935460710
Li  3.0477947220  1.7596451070  1.2645153540
Yb  4.5598338540  0.8866688220  3.7935460710
Yb  1.5357494160  0.8866688220  3.7935460710
Yb  3.0477918510  3.5056028970  3.7935460710
Yb  -1.5120388260  4.3922664900  1.2645153540
Yb  1.5120456120  4.3922664900  1.2645153540
Yb  0.0000031680  1.7733324150  1.2645153540
8
scale = 0.95000
Li  0.0000003135  3.7148063275  4.0042986305
Li  3.2171166510  1.8574031685  1.3347662070
Yb  4.8131579570  0.9359282010  4.0042986305
Yb  1.6210688280  0.9359282010  4.0042986305
Yb  3.2171136205  3.7003586135  4.0042986305
Yb  -1.5960409830  4.6362812950  1.3347662070
Yb  1.5960481460  4.6362812950  1.3347662070
Yb  0.0000033440  1.8718508825  1.3347662070
8
scale = 1.00000
Li  0.0000003300  3.9103224500  4.2150511900
Li  3.3864385800  1.9551612300  1.4050170600
Yb  5.0664820600  0.9851875800  4.2150511900
Yb  1.7063882400  0.9851875800  4.2150511900
Yb  3.3864353900  3.8951143300  4.2150511900
Yb  -1.6800431400  4.8802961000  1.4050170600
Yb  1.6800506800  4.8802961000  1.4050170600
Yb  0.0000035200  1.9703693500  1.4050170600
8
scale = 1.05000
Li  0.0000003465  4.1058385725  4.4258037495
Li  3.5557605090  2.0529192915  1.4752679130
Yb  5.3198061630  1.0344469590  4.4258037495
Yb  1.7917076520  1.0344469590  4.4258037495
Yb  3.5557571595  4.0898700465  4.4258037495
Yb  -1.7640452970  5.1243109050  1.4752679130
Yb  1.7640532140  5.1243109050  1.4752679130
Yb  0.0000036960  2.0688878175  1.4752679130
8
scale = 1.10000
Li  0.0000003630  4.3013546950  4.6365563090
Li  3.7250824380  2.1506773530  1.5455187660
Yb  5.5731302660  1.0837063380  4.6365563090
Yb  1.8770270640  1.0837063380  4.6365563090
Yb  3.7250789290  4.2846257630  4.6365563090
Yb  -1.8480474540  5.3683257100  1.5455187660
Yb  1.8480557480  5.3683257100  1.5455187660
Yb  0.0000038720  2.1674062850  1.5455187660
8
scale = 1.15000
Li  0.0000003795  4.4968708175  4.8473088685
Li  3.8944043670  2.2484354145  1.6157696190
Yb  5.8264543690  1.1329657170  4.8473088685
Yb  1.9623464760  1.1329657170  4.8473088685
Yb  3.8944006985  4.4793814795  4.8473088685
Yb  -1.9320496110  5.6123405150  1.6157696190
Yb  1.9320582820  5.6123405150  1.6157696190
Yb  0.0000040480  2.2659247525  1.6157696190
8
scale = 1.20000
Li  0.0000003960  4.6923869400  5.0580614280
Li  4.0637262960  2.3461934760  1.6860204720
Yb  6.0797784720  1.1822250960  5.0580614280
Yb  2.0476658880  1.1822250960  5.0580614280
Yb  4.0637224680  4.6741371960  5.0580614280
Yb  -2.0160517680  5.8563553200  1.6860204720
Yb  2.0160608160  5.8563553200  1.6860204720
Yb  0.0000042240  2.3644432200  1.6860204720
8
scale = 1.25000
Li  0.0000004125  4.8879030625  5.2688139875
Li  4.2330482250  2.4439515375  1.7562713250
Yb  6.3331025750  1.2314844750  5.2688139875
Yb  2.1329853000  1.2314844750  5.2688139875
Yb  4.2330442375  4.8688929125  5.2688139875
Yb  -2.1000539250  6.1003701250  1.7562713250
Yb  2.1000633500  6.1003701250  1.7562713250
Yb  0.0000044000  2.4629616875  1.7562713250
8
scale = 1.30000
Li  0.0000004290  5.0834191850  5.4795665470
Li  4.4023701540  2.5417095990  1.8265221780
Yb  6.5864266780  1.2807438540  5.4795665470
Yb  2.2183047120  1.2807438540  5.4795665470
Yb  4.4023660070  5.0636486290  5.4795665470
Yb  -2.1840560820  6.3443849300  1.8265221780
Yb  2.1840658840  6.3443849300  1.8265221780
Yb  0.0000045760  2.5614801550  1.8265221780
8
scale = 1.35000
Li  0.0000004455  5.2789353075  5.6903191065
Li  4.5716920830  2.6394676605  1.8967730310
Yb  6.8397507810  1.3300032330  5.6903191065
Yb  2.3036241240  1.3300032330  5.6903191065
Yb  4.5716877765  5.2584043455  5.6903191065
Yb  -2.2680582390  6.5883997350  1.8967730310
Yb  2.2680684180  6.5883997350  1.8967730310
Yb  0.0000047520  2.6599986225  1.8967730310
8
scale = 1.40000
Li  0.0000004620  5.4744514300  5.9010716660
Li  4.7410140120  2.7372257220  1.9670238840
Yb  7.0930748840  1.3792626120  5.9010716660
Yb  2.3889435360  1.3792626120  5.9010716660
Yb  4.7410095460  5.4531600620  5.9010716660
Yb  -2.3520603960  6.8324145400  1.9670238840
Yb  2.3520709520  6.8324145400  1.9670238840
Yb  0.0000049280  2.7585170900  1.9670238840
8
scale = 1.45000
Li  0.0000004785  5.6699675525  6.1118242255
Li  4.9103359410  2.8349837835  2.0372747370
Yb  7.3463989870  1.4285219910  6.1118242255
Yb  2.4742629480  1.4285219910  6.1118242255
Yb  4.9103313155  5.6479157785  6.1118242255
Yb  -2.4360625530  7.0764293450  2.0372747370
Yb  2.4360734860  7.0764293450  2.0372747370
Yb  0.0000051040  2.8570355575  2.0372747370
8
scale = 1.50000
Li  0.0000004950  5.8654836750  6.3225767850
Li  5.0796578700  2.9327418450  2.1075255900
Yb  7.5997230900  1.4777813700  6.3225767850
Yb  2.5595823600  1.4777813700  6.3225767850
Yb  5.0796530850  5.8426714950  6.3225767850
Yb  -2.5200647100  7.3204441500  2.1075255900
Yb  2.5200760200  7.3204441500  2.1075255900
Yb  0.0000052800  2.9555540250  2.1075255900
8
scale = 1.55000
Li  0.0000005115  6.0609997975  6.5333293445
Li  5.2489797990  3.0304999065  2.1777764430
Yb  7.8530471930  1.5270407490  6.5333293445
Yb  2.6449017720  1.5270407490  6.5333293445
Yb  5.2489748545  6.0374272115  6.5333293445
Yb  -2.6040668670  7.5644589550  2.1777764430
Yb  2.6040785540  7.5644589550  2.1777764430
Yb  0.0000054560  3.0540724925  2.1777764430
8
scale = 1.60000
Li  0.0000005280  6.2565159200  6.7440819040
Li  5.4183017280  3.1282579680  2.2480272960
Yb  8.1063712960  1.5763001280  6.7440819040
Yb  2.7302211840  1.5763001280  6.7440819040
Yb  5.4182966240  6.2321829280  6.7440819040
Yb  -2.6880690240  7.8084737600  2.2480272960
Yb  2.6880810880  7.8084737600  2.2480272960
Yb  0.0000056320  3.1525909600  2.2480272960
8
scale = 1.65000
Li  0.0000005445  6.4520320425  6.9548344635
Li  5.5876236570  3.2260160295  2.3182781490
Yb  8.3596953990  1.6255595070  6.9548344635
Yb  2.8155405960  1.6255595070  6.9548344635
Yb  5.5876183935  6.4269386445  6.9548344635
Yb  -2.7720711810  8.0524885650  2.3182781490
Yb  2.7720836220  8.0524885650  2.3182781490
Yb  0.0000058080  3.2511094275  2.3182781490
8
scale = 1.70000
Li  0.0000005610  6.6475481650  7.1655870230
Li  5.7569455860  3.3237740910  2.3885290020
Yb  8.6130195020  1.6748188860  7.1655870230
Yb  2.9008600080  1.6748188860  7.1655870230
Yb  5.7569401630  6.6216943610  7.1655870230
Yb  -2.8560733380  8.2965033700  2.3885290020
Yb  2.8560861560  8.2965033700  2.3885290020
Yb  0.0000059840  3.3496278950  2.3885290020
8
scale = 1.75000
Li  0.0000005775  6.8430642875  7.3763395825
Li  5.9262675150  3.4215321525  2.4587798550
Yb  8.8663436050  1.7240782650  7.3763395825
Yb  2.9861794200  1.7240782650  7.3763395825
Yb  5.9262619325  6.8164500775  7.3763395825
Yb  -2.9400754950  8.5405181750  2.4587798550
Yb  2.9400886900  8.5405181750  2.4587798550
Yb  0.0000061600  3.4481463625  2.4587798550
8
scale = 1.80000
Li  0.0000005940  7.0385804100  7.5870921420
Li  6.0955894440  3.5192902140  2.5290307080
Yb  9.1196677080  1.7733376440  7.5870921420
Yb  3.0714988320  1.7733376440  7.5870921420
Yb  6.0955837020  7.0112057940  7.5870921420
Yb  -3.0240776520  8.7845329800  2.5290307080
Yb  3.0240912240  8.7845329800  2.5290307080
Yb  0.0000063360  3.5466648300  2.5290307080
8
scale = 1.85000
Li  0.0000006105  7.2340965325  7.7978447015
Li  6.2649113730  3.6170482755  2.5992815610
Yb  9.3729918110  1.8225970230  7.7978447015
Yb  3.1568182440  1.8225970230  7.7978447015
Yb  6.2649054715  7.2059615105  7.7978447015
Yb  -3.1080798090  9.0285477850  2.5992815610
Yb  3.1080937580  9.0285477850  2.5992815610
Yb  0.0000065120  3.6451832975  2.5992815610
8
scale = 1.90000
Li  0.0000006270  7.4296126550  8.0085972610
Li  6.4342333020  3.7148063370  2.6695324140
Yb  9.6263159140  1.8718564020  8.0085972610
Yb  3.2421376560  1.8718564020  8.0085972610
Yb  6.4342272410  7.4007172270  8.0085972610
Yb  -3.1920819660  9.2725625900  2.6695324140
Yb  3.1920962920  9.2725625900  2.6695324140
Yb  0.0000066880  3.7437017650  2.6695324140
8
scale = 1.95000
Li  0.0000006435  7.6251287775  8.2193498205
Li  6.6035552310  3.8125643985  2.7397832670
Yb  9.8796400170  1.9211157810  8.2193498205
Yb  3.3274570680  1.9211157810  8.2193498205
Yb  6.6035490105  7.5954729435  8.2193498205
Yb  -3.2760841230  9.5165773950  2.7397832670
Yb  3.2760988260  9.5165773950  2.7397832670
Yb  0.0000068640  3.8422202325  2.7397832670
8
scale = 2.00000
Li  0.0000006600  7.8206449000  8.4301023800
Li  6.7728771600  3.9103224600  2.8100341200
Yb  10.1329641200  1.9703751600  8.4301023800
Yb  3.4127764800  1.9703751600  8.4301023800
Yb  6.7728707800  7.7902286600  8.4301023800
Yb  -3.3600862800  9.7605922000  2.8100341200
Yb  3.3601013600  9.7605922000  2.8100341200
Yb  0.0000070400  3.9407387000  2.8100341200
8
scale = 2.05000
Li  0.0000006765  8.0161610225  8.6408549395
Li  6.9421990890  4.0080805215  2.8802849730
Yb  10.3862882230  2.0196345390  8.6408549395
Yb  3.4980958920  2.0196345390  8.6408549395
Yb  6.9421925495  7.9849843765  8.6408549395
Yb  -3.4440884370  10.0046070050  2.8802849730
Yb  3.4441038940  10.0046070050  2.8802849730
Yb  0.0000072160  4.0392571675  2.8802849730
8
scale = 2.10000
Li  0.0000006930  8.2116771450  8.8516074990
Li  7.1115210180  4.1058385830  2.9505358260
Yb  10.6396123260  2.0688939180  8.8516074990
Yb  3.5834153040  2.0688939180  8.8516074990
Yb  7.1115143190  8.1797400930  8.8516074990
Yb  -3.5280905940  10.2486218100  2.9505358260
Yb  3.5281064280  10.2486218100  2.9505358260
Yb  0.0000073920  4.1377756350  2.9505358260
8
scale = 2.15000
Li  0.0000007095  8.4071932675  9.0623600585
Li  7.2808429470  4.2035966445  3.0207866790
Yb  10.8929364290  2.1181532970  9.0623600585
Yb  3.6687347160  2.1181532970  9.0623600585
Yb  7.2808360885  8.3744958095  9.0623600585
Yb  -3.6120927510  10.4926366150  3.0207866790
Yb  3.6121089620  10.4926366150  3.0207866790
Yb  0.0000075680  4.2362941025  3.0207866790
8
scale = 2.20000
Li  0.0000007260  8.6027093900  9.2731126180
Li  7.4501648760  4.3013547060  3.0910375320
Yb  11.1462605320  2.1674126760  9.2731126180
Yb  3.7540541280  2.1674126760  9.2731126180
Yb  7.4501578580  8.5692515260  9.2731126180
Yb  -3.6960949080  10.7366514200  3.0910375320
Yb  3.6961114960  10.7366514200  3.0910375320
Yb  0.0000077440  4.3348125700  3.0910375320
8
scale = 2.25000
Li  0.0000007425  8.7982255125  9.4838651775
Li  7.6194868050  4.3991127675  3.1612883850
Yb  11.3995846350  2.2166720550  9.4838651775
Yb  3.8393735400  2.2166720550  9.4838651775
Yb  7.6194796275  8.7640072425  9.4838651775
Yb  -3.7800970650  10.9806662250  3.1612883850
Yb  3.7801140300  10.9806662250  3.1612883850
Yb  0.0000079200  4.4333310375  3.1612883850
8
scale = 2.30000
Li  0.0000007590  8.9937416350  9.6946177370
Li  7.7888087340  4.4968708290  3.2315392380
Yb  11.6529087380  2.2659314340  9.6946177370
Yb  3.9246929520  2.2659314340  9.6946177370
Yb  7.7888013970  8.9587629590  9.6946177370
Yb  -3.8640992220  11.2246810300  3.2315392380
Yb  3.8641165640  11.2246810300  3.2315392380
Yb  0.0000080960  4.5318495050  3.2315392380
8
scale = 2.35000
Li  0.0000007755  9.1892577575  9.9053702965
Li  7.9581306630  4.5946288905  3.3017900910
Yb  11.9062328410  2.3151908130  9.9053702965
Yb  4.0100123640  2.3151908130  9.9053702965
Yb  7.9581231665  9.1535186755  9.9053702965
Yb  -3.9481013790  11.4686958350  3.3017900910
Yb  3.9481190980  11.4686958350  3.3017900910
Yb  0.0000082720  4.6303679725  3.3017900910
8
scale = 2.40000
Li  0.0000007920  9.3847738800  10.1161228560
Li  8.1274525920  4.6923869520  3.3720409440
Yb  12.1595569440  2.3644501920  10.1161228560
Yb  4.0953317760  2.3644501920  10.1161228560
Yb  8.1274449360  9.3482743920  10.1161228560
Yb  -4.0321035360  11.7127106400  3.3720409440
Yb  4.0321216320  11.7127106400  3.3720409440
Yb  0.0000084480  4.7288864400  3.3720409440
8
scale = 2.45000
Li  0.0000008085  9.5802900025  10.3268754155
Li  8.2967745210  4.7901450135  3.4422917970
Yb  12.4128810470  2.4137095710  10.3268754155
Yb  4.1806511880  2.4137095710  10.3268754155
Yb  8.2967667055  9.5430301085  10.3268754155
Yb  -4.1161056930  11.9567254450  3.4422917970
Yb  4.1161241660  11.9567254450  3.4422917970
Yb  0.0000086240  4.8274049075  3.4422917970
