4
scale = 0.75000
Li  2.7658822350  1.9557740850  4.7906485650
Zn  0.0000000000  0.0000000000  0.0000000000
Zn  1.8439178025  1.3038467850  3.1937593200
Zn  0.9219570600  0.6519220875  1.5968764650
4
scale = 0.80000
Li  2.9502743840  2.0861590240  5.1100251360
Zn  0.0000000000  0.0000000000  0.0000000000
Zn  1.9668456560  1.3907699040  3.4066766080
Zn  0.9834208640  0.6953835600  1.7033348960
4
scale = 0.85000
Li  3.1346665330  2.2165439630  5.4294017070
Zn  0.0000000000  0.0000000000  0.0000000000
Zn  2.0897735095  1.4776930230  3.6195938960
Zn  1.0448846680  0.7388450325  1.8097933270
4
scale = 0.90000
Li  3.3190586820  2.3469289020  5.7487782780
Zn  0.0000000000  0.0000000000  0.0000000000
Zn  2.2127013630  1.5646161420  3.8325111840
Zn  1.1063484720  0.7823065050  1.9162517580
4
scale = 0.95000
Li  3.5034508310  2.4773138410  6.0681548490
Zn  0.0000000000  0.0000000000  0.0000000000
Zn  2.3356292165  1.6515392610  4.0454284720
Zn  1.1678122760  0.8257679775  2.0227101890
4
scale = 1.00000
Li  3.6878429800  2.6076987800  6.3875314200
Zn  0.0000000000  0.0000000000  0.0000000000
Zn  2.4585570700  1.7384623800  4.2583457600
Zn  1.2292760800  0.8692294500  2.1291686200
4
scale = 1.05000
Li  3.8722351290  2.7380837190  6.7069079910
Zn  0.0000000000  0.0000000000  0.0000000000
Zn  2.5814849235  1.8253854990  4.4712630480
Zn  1.2907398840  0.9126909225  2.2356270510
4
scale = 1.10000
Li  4.0566272780  2.8684686580  7.0262845620
Zn  0.0000000000  0.0000000000  0.0000000000
Zn  2.7044127770  1.9123086180  4.6841803360
Zn  1.3522036880  0.9561523950  2.3420854820
4
scale = 1.15000
Li  4.2410194270  2.9988535970  7.3456611330
Zn  0.0000000000  0.0000000000  0.0000000000
Zn  2.8273406305  1.9992317370  4.8970976240
Zn  1.4136674920  0.9996138675  2.4485439130
4
scale = 1.20000
Li  4.4254115760  3.1292385360  7.6650377040
Zn  0.0000000000  0.0000000000  0.0000000000
Zn  2.9502684840  2.0861548560  5.1100149120
Zn  1.4751312960  1.0430753400  2.5550023440
4
scale = 1.25000
Li  4.6098037250  3.2596234750  7.9844142750
Zn  0.0000000000  0.0000000000  0.0000000000
Zn  3.0731963375  2.1730779750  5.3229322000
Zn  1.5365951000  1.0865368125  2.6614607750
4
scale = 1.30000
Li  4.7941958740  3.3900084140  8.3037908460
Zn  0.0000000000  0.0000000000  0.0000000000
Zn  3.1961241910  2.2600010940  5.5358494880
Zn  1.5980589040  1.1299982850  2.7679192060
4
scale = 1.35000
Li  4.9785880230  3.5203933530  8.6231674170
Zn  0.0000000000  0.0000000000  0.0000000000
Zn  3.3190520445  2.3469242130  5.7487667760
Zn  1.6595227080  1.1734597575  2.8743776370
4
scale = 1.40000
Li  5.1629801720  3.6507782920  8.9425439880
Zn  0.0000000000  0.0000000000  0.0000000000
Zn  3.4419798980  2.4338473320  5.9616840640
Zn  1.7209865120  1.2169212300  2.9808360680
4
scale = 1.45000
Li  5.3473723210  3.7811632310  9.2619205590
Zn  0.0000000000  0.0000000000  0.0000000000
Zn  3.5649077515  2.5207704510  6.1746013520
Zn  1.7824503160  1.2603827025  3.0872944990
4
scale = 1.50000
Li  5.5317644700  3.9115481700  9.5812971300
Zn  0.0000000000  0.0000000000  0.0000000000
Zn  3.6878356050  2.6076935700  6.3875186400
Zn  1.8439141200  1.3038441750  3.1937529300
4
scale = 1.55000
Li  5.7161566190  4.0419331090  9.9006737010
Zn  0.0000000000  0.0000000000  0.0000000000
Zn  3.8107634585  2.6946166890  6.6004359280
Zn  1.9053779240  1.3473056475  3.3002113610
4
scale = 1.60000
Li  5.9005487680  4.1723180480  10.2200502720
Zn  0.0000000000  0.0000000000  0.0000000000
Zn  3.9336913120  2.7815398080  6.8133532160
Zn  1.9668417280  1.3907671200  3.4066697920
4
scale = 1.65000
Li  6.0849409170  4.3027029870  10.5394268430
Zn  0.0000000000  0.0000000000  0.0000000000
Zn  4.0566191655  2.8684629270  7.0262705040
Zn  2.0283055320  1.4342285925  3.5131282230
4
scale = 1.70000
Li  6.2693330660  4.4330879260  10.8588034140
Zn  0.0000000000  0.0000000000  0.0000000000
Zn  4.1795470190  2.9553860460  7.2391877920
Zn  2.0897693360  1.4776900650  3.6195866540
4
scale = 1.75000
Li  6.4537252150  4.5634728650  11.1781799850
Zn  0.0000000000  0.0000000000  0.0000000000
Zn  4.3024748725  3.0423091650  7.4521050800
Zn  2.1512331400  1.5211515375  3.7260450850
4
scale = 1.80000
Li  6.6381173640  4.6938578040  11.4975565560
Zn  0.0000000000  0.0000000000  0.0000000000
Zn  4.4254027260  3.1292322840  7.6650223680
Zn  2.2126969440  1.5646130100  3.8325035160
4
scale = 1.85000
Li  6.8225095130  4.8242427430  11.8169331270
Zn  0.0000000000  0.0000000000  0.0000000000
Zn  4.5483305795  3.2161554030  7.8779396560
Zn  2.2741607480  1.6080744825  3.9389619470
4
scale = 1.90000
Li  7.0069016620  4.9546276820  12.1363096980
Zn  0.0000000000  0.0000000000  0.0000000000
Zn  4.6712584330  3.3030785220  8.0908569440
Zn  2.3356245520  1.6515359550  4.0454203780
4
scale = 1.95000
Li  7.1912938110  5.0850126210  12.4556862690
Zn  0.0000000000  0.0000000000  0.0000000000
Zn  4.7941862865  3.3900016410  8.3037742320
Zn  2.3970883560  1.6949974275  4.1518788090
4
scale = 2.00000
Li  7.3756859600  5.2153975600  12.7750628400
Zn  0.0000000000  0.0000000000  0.0000000000
Zn  4.9171141400  3.4769247600  8.5166915200
Zn  2.4585521600  1.7384589000  4.2583372400
4
scale = 2.05000
Li  7.5600781090  5.3457824990  13.0944394110
Zn  0.0000000000  0.0000000000  0.0000000000
Zn  5.0400419935  3.5638478790  8.7296088080
Zn  2.5200159640  1.7819203725  4.3647956710
4
scale = 2.10000
Li  7.7444702580  5.4761674380  13.4138159820
Zn  0.0000000000  0.0000000000  0.0000000000
Zn  5.1629698470  3.6507709980  8.9425260960
Zn  2.5814797680  1.8253818450  4.4712541020
4
scale = 2.15000
Li  7.9288624070  5.6065523770  13.7331925530
Zn  0.0000000000  0.0000000000  0.0000000000
Zn  5.2858977005  3.7376941170  9.1554433840
Zn  2.6429435720  1.8688433175  4.5777125330
4
scale = 2.20000
Li  8.1132545560  5.7369373160  14.0525691240
Zn  0.0000000000  0.0000000000  0.0000000000
Zn  5.4088255540  3.8246172360  9.3683606720
Zn  2.7044073760  1.9123047900  4.6841709640
4
scale = 2.25000
Li  8.2976467050  5.8673222550  14.3719456950
Zn  0.0000000000  0.0000000000  0.0000000000
Zn  5.5317534075  3.9115403550  9.5812779600
Zn  2.7658711800  1.9557662625  4.7906293950
4
scale = 2.30000
Li  8.4820388540  5.9977071940  14.6913222660
Zn  0.0000000000  0.0000000000  0.0000000000
Zn  5.6546812610  3.9984634740  9.7941952480
Zn  2.8273349840  1.9992277350  4.8970878260
4
scale = 2.35000
Li  8.6664310030  6.1280921330  15.0106988370
Zn  0.0000000000  0.0000000000  0.0000000000
Zn  5.7776091145  4.0853865930  10.0071125360
Zn  2.8887987880  2.0426892075  5.0035462570
4
scale = 2.40000
Li  8.8508231520  6.2584770720  15.3300754080
Zn  0.0000000000  0.0000000000  0.0000000000
Zn  5.9005369680  4.1723097120  10.2200298240
Zn  2.9502625920  2.0861506800  5.1100046880
4
scale = 2.45000
Li  9.0352153010  6.3888620110  15.6494519790
Zn  0.0000000000  0.0000000000  0.0000000000
Zn  6.0234648215  4.2592328310  10.4329471120
Zn  3.0117263960  2.1296121525  5.2164631190
