4
scale = 0.75000
Li  3.2490582300  2.2974308850  5.6275326525
Li  0.4641511725  0.3282044100  0.8039332350
Zn  1.3924535250  0.9846132375  2.4117997050
Zn  2.3207558775  1.6410220575  4.0196661825
4
scale = 0.80000
Li  3.4656621120  2.4505929440  6.0027014960
Li  0.4950945840  0.3500847040  0.8575287840
Zn  1.4852837600  1.0502541200  2.5725863520
Zn  2.4754729360  1.7504235280  4.2876439280
4
scale = 0.85000
Li  3.6822659940  2.6037550030  6.3778703395
Li  0.5260379955  0.3719649980  0.9111243330
Zn  1.5781139950  1.1158950025  2.7333729990
Zn  2.6301899945  1.8598249985  4.5556216735
4
scale = 0.90000
Li  3.8988698760  2.7569170620  6.7530391830
Li  0.5569814070  0.3938452920  0.9647198820
Zn  1.6709442300  1.1815358850  2.8941596460
Zn  2.7849070530  1.9692264690  4.8235994190
4
scale = 0.95000
Li  4.1154737580  2.9100791210  7.1282080265
Li  0.5879248185  0.4157255860  1.0183154310
Zn  1.7637744650  1.2471767675  3.0549462930
Zn  2.9396241115  2.0786279395  5.0915771645
4
scale = 1.00000
Li  4.3320776400  3.0632411800  7.5033768700
Li  0.6188682300  0.4376058800  1.0719109800
Zn  1.8566047000  1.3128176500  3.2157329400
Zn  3.0943411700  2.1880294100  5.3595549100
4
scale = 1.05000
Li  4.5486815220  3.2164032390  7.8785457135
Li  0.6498116415  0.4594861740  1.1255065290
Zn  1.9494349350  1.3784585325  3.3765195870
Zn  3.2490582285  2.2974308805  5.6275326555
4
scale = 1.10000
Li  4.7652854040  3.3695652980  8.2537145570
Li  0.6807550530  0.4813664680  1.1791020780
Zn  2.0422651700  1.4440994150  3.5373062340
Zn  3.4037752870  2.4068323510  5.8955104010
4
scale = 1.15000
Li  4.9818892860  3.5227273570  8.6288834005
Li  0.7116984645  0.5032467620  1.2326976270
Zn  2.1350954050  1.5097402975  3.6980928810
Zn  3.5584923455  2.5162338215  6.1634881465
4
scale = 1.20000
Li  5.1984931680  3.6758894160  9.0040522440
Li  0.7426418760  0.5251270560  1.2862931760
Zn  2.2279256400  1.5753811800  3.8588795280
Zn  3.7132094040  2.6256352920  6.4314658920
4
scale = 1.25000
Li  5.4150970500  3.8290514750  9.3792210875
Li  0.7735852875  0.5470073500  1.3398887250
Zn  2.3207558750  1.6410220625  4.0196661750
Zn  3.8679264625  2.7350367625  6.6994436375
4
scale = 1.30000
Li  5.6317009320  3.9822135340  9.7543899310
Li  0.8045286990  0.5688876440  1.3934842740
Zn  2.4135861100  1.7066629450  4.1804528220
Zn  4.0226435210  2.8444382330  6.9674213830
4
scale = 1.35000
Li  5.8483048140  4.1353755930  10.1295587745
Li  0.8354721105  0.5907679380  1.4470798230
Zn  2.5064163450  1.7723038275  4.3412394690
Zn  4.1773605795  2.9538397035  7.2353991285
4
scale = 1.40000
Li  6.0649086960  4.2885376520  10.5047276180
Li  0.8664155220  0.6126482320  1.5006753720
Zn  2.5992465800  1.8379447100  4.5020261160
Zn  4.3320776380  3.0632411740  7.5033768740
4
scale = 1.45000
Li  6.2815125780  4.4416997110  10.8798964615
Li  0.8973589335  0.6345285260  1.5542709210
Zn  2.6920768150  1.9035855925  4.6628127630
Zn  4.4867946965  3.1726426445  7.7713546195
4
scale = 1.50000
Li  6.4981164600  4.5948617700  11.2550653050
Li  0.9283023450  0.6564088200  1.6078664700
Zn  2.7849070500  1.9692264750  4.8235994100
Zn  4.6415117550  3.2820441150  8.0393323650
4
scale = 1.55000
Li  6.7147203420  4.7480238290  11.6302341485
Li  0.9592457565  0.6782891140  1.6614620190
Zn  2.8777372850  2.0348673575  4.9843860570
Zn  4.7962288135  3.3914455855  8.3073101105
4
scale = 1.60000
Li  6.9313242240  4.9011858880  12.0054029920
Li  0.9901891680  0.7001694080  1.7150575680
Zn  2.9705675200  2.1005082400  5.1451727040
Zn  4.9509458720  3.5008470560  8.5752878560
4
scale = 1.65000
Li  7.1479281060  5.0543479470  12.3805718355
Li  1.0211325795  0.7220497020  1.7686531170
Zn  3.0633977550  2.1661491225  5.3059593510
Zn  5.1056629305  3.6102485265  8.8432656015
4
scale = 1.70000
Li  7.3645319880  5.2075100060  12.7557406790
Li  1.0520759910  0.7439299960  1.8222486660
Zn  3.1562279900  2.2317900050  5.4667459980
Zn  5.2603799890  3.7196499970  9.1112433470
4
scale = 1.75000
Li  7.5811358700  5.3606720650  13.1309095225
Li  1.0830194025  0.7658102900  1.8758442150
Zn  3.2490582250  2.2974308875  5.6275326450
Zn  5.4150970475  3.8290514675  9.3792210925
4
scale = 1.80000
Li  7.7977397520  5.5138341240  13.5060783660
Li  1.1139628140  0.7876905840  1.9294397640
Zn  3.3418884600  2.3630717700  5.7883192920
Zn  5.5698141060  3.9384529380  9.6471988380
4
scale = 1.85000
Li  8.0143436340  5.6669961830  13.8812472095
Li  1.1449062255  0.8095708780  1.9830353130
Zn  3.4347186950  2.4287126525  5.9491059390
Zn  5.7245311645  4.0478544085  9.9151765835
4
scale = 1.90000
Li  8.2309475160  5.8201582420  14.2564160530
Li  1.1758496370  0.8314511720  2.0366308620
Zn  3.5275489300  2.4943535350  6.1098925860
Zn  5.8792482230  4.1572558790  10.1831543290
4
scale = 1.95000
Li  8.4475513980  5.9733203010  14.6315848965
Li  1.2067930485  0.8533314660  2.0902264110
Zn  3.6203791650  2.5599944175  6.2706792330
Zn  6.0339652815  4.2666573495  10.4511320745
4
scale = 2.00000
Li  8.6641552800  6.1264823600  15.0067537400
Li  1.2377364600  0.8752117600  2.1438219600
Zn  3.7132094000  2.6256353000  6.4314658800
Zn  6.1886823400  4.3760588200  10.7191098200
4
scale = 2.05000
Li  8.8807591620  6.2796444190  15.3819225835
Li  1.2686798715  0.8970920540  2.1974175090
Zn  3.8060396350  2.6912761825  6.5922525270
Zn  6.3433993985  4.4854602905  10.9870875655
4
scale = 2.10000
Li  9.0973630440  6.4328064780  15.7570914270
Li  1.2996232830  0.9189723480  2.2510130580
Zn  3.8988698700  2.7569170650  6.7530391740
Zn  6.4981164570  4.5948617610  11.2550653110
4
scale = 2.15000
Li  9.3139669260  6.5859685370  16.1322602705
Li  1.3305666945  0.9408526420  2.3046086070
Zn  3.9917001050  2.8225579475  6.9138258210
Zn  6.6528335155  4.7042632315  11.5230430565
4
scale = 2.20000
Li  9.5305708080  6.7391305960  16.5074291140
Li  1.3615101060  0.9627329360  2.3582041560
Zn  4.0845303400  2.8881988300  7.0746124680
Zn  6.8075505740  4.8136647020  11.7910208020
4
scale = 2.25000
Li  9.7471746900  6.8922926550  16.8825979575
Li  1.3924535175  0.9846132300  2.4117997050
Zn  4.1773605750  2.9538397125  7.2353991150
Zn  6.9622676325  4.9230661725  12.0589985475
4
scale = 2.30000
Li  9.9637785720  7.0454547140  17.2577668010
Li  1.4233969290  1.0064935240  2.4653952540
Zn  4.2701908100  3.0194805950  7.3961857620
Zn  7.1169846910  5.0324676430  12.3269762930
4
scale = 2.35000
Li  10.1803824540  7.1986167730  17.6329356445
Li  1.4543403405  1.0283738180  2.5189908030
Zn  4.3630210450  3.0851214775  7.5569724090
Zn  7.2717017495  5.1418691135  12.5949540385
4
scale = 2.40000
Li  10.3969863360  7.3517788320  18.0081044880
Li  1.4852837520  1.0502541120  2.5725863520
Zn  4.4558512800  3.1507623600  7.7177590560
Zn  7.4264188080  5.2512705840  12.8629317840
4
scale = 2.45000
Li  10.6135902180  7.5049408910  18.3832733315
Li  1.5162271635  1.0721344060  2.6261819010
Zn  4.5486815150  3.2164032425  7.8785457030
Zn  7.5811358665  5.3606720545  13.1309095295
