4
scale = 0.75000
Li  0.0000000000  0.0000000000  0.0000000000
Zn  0.0000000000  0.0000000000  3.3101025000
Zn  1.0493085900  0.6058185975  1.6509732000
Zn  1.0493085900  0.6058185975  4.9692318000
4
scale = 0.80000
Li  0.0000000000  0.0000000000  0.0000000000
Zn  0.0000000000  0.0000000000  3.5307760000
Zn  1.1192624960  0.6462065040  1.7610380800
Zn  1.1192624960  0.6462065040  5.3005139200
4
scale = 0.85000
Li  0.0000000000  0.0000000000  0.0000000000
Zn  0.0000000000  0.0000000000  3.7514495000
Zn  1.1892164020  0.6865944105  1.8711029600
Zn  1.1892164020  0.6865944105  5.6317960400
4
scale = 0.90000
Li  0.0000000000  0.0000000000  0.0000000000
Zn  0.0000000000  0.0000000000  3.9721230000
Zn  1.2591703080  0.7269823170  1.9811678400
Zn  1.2591703080  0.7269823170  5.9630781600
4
scale = 0.95000
Li  0.0000000000  0.0000000000  0.0000000000
Zn  0.0000000000  0.0000000000  4.1927965000
Zn  1.3291242140  0.7673702235  2.0912327200
Zn  1.3291242140  0.7673702235  6.2943602800
4
scale = 1.00000
Li  0.0000000000  0.0000000000  0.0000000000
Zn  0.0000000000  0.0000000000  4.4134700000
Zn  1.3990781200  0.8077581300  2.2012976000
Zn  1.3990781200  0.8077581300  6.6256424000
4
scale = 1.05000
Li  0.0000000000  0.0000000000  0.0000000000
Zn  0.0000000000  0.0000000000  4.6341435000
Zn  1.4690320260  0.8481460365  2.3113624800
Zn  1.4690320260  0.8481460365  6.9569245200
4
scale = 1.10000
Li  0.0000000000  0.0000000000  0.0000000000
Zn  0.0000000000  0.0000000000  4.8548170000
Zn  1.5389859320  0.8885339430  2.4214273600
Zn  1.5389859320  0.8885339430  7.2882066400
4
scale = 1.15000
Li  0.0000000000  0.0000000000  0.0000000000
Zn  0.0000000000  0.0000000000  5.0754905000
Zn  1.6089398380  0.9289218495  2.5314922400
Zn  1.6089398380  0.9289218495  7.6194887600
4
scale = 1.20000
Li  0.0000000000  0.0000000000  0.0000000000
Zn  0.0000000000  0.0000000000  5.2961640000
Zn  1.6788937440  0.9693097560  2.6415571200
Zn  1.6788937440  0.9693097560  7.9507708800
4
scale = 1.25000
Li  0.0000000000  0.0000000000  0.0000000000
Zn  0.0000000000  0.0000000000  5.5168375000
Zn  1.7488476500  1.0096976625  2.7516220000
Zn  1.7488476500  1.0096976625  8.2820530000
4
scale = 1.30000
Li  0.0000000000  0.0000000000  0.0000000000
Zn  0.0000000000  0.0000000000  5.7375110000
Zn  1.8188015560  1.0500855690  2.8616868800
Zn  1.8188015560  1.0500855690  8.6133351200
4
scale = 1.35000
Li  0.0000000000  0.0000000000  0.0000000000
Zn  0.0000000000  0.0000000000  5.9581845000
Zn  1.8887554620  1.0904734755  2.9717517600
Zn  1.8887554620  1.0904734755  8.9446172400
4
scale = 1.40000
Li  0.0000000000  0.0000000000  0.0000000000
Zn  0.0000000000  0.0000000000  6.1788580000
Zn  1.9587093680  1.1308613820  3.0818166400
Zn  1.9587093680  1.1308613820  9.2758993600
4
scale = 1.45000
Li  0.0000000000  0.0000000000  0.0000000000
Zn  0.0000000000  0.0000000000  6.3995315000
Zn  2.0286632740  1.1712492885  3.1918815200
Zn  2.0286632740  1.1712492885  9.6071814800
4
scale = 1.50000
Li  0.0000000000  0.0000000000  0.0000000000
Zn  0.0000000000  0.0000000000  6.6202050000
Zn  2.0986171800  1.2116371950  3.3019464000
Zn  2.0986171800  1.2116371950  9.9384636000
4
scale = 1.55000
Li  0.0000000000  0.0000000000  0.0000000000
Zn  0.0000000000  0.0000000000  6.8408785000
Zn  2.1685710860  1.2520251015  3.4120112800
Zn  2.1685710860  1.2520251015  10.2697457200
4
scale = 1.60000
Li  0.0000000000  0.0000000000  0.0000000000
Zn  0.0000000000  0.0000000000  7.0615520000
Zn  2.2385249920  1.2924130080  3.5220761600
Zn  2.2385249920  1.2924130080  10.6010278400
4
scale = 1.65000
Li  0.0000000000  0.0000000000  0.0000000000
Zn  0.0000000000  0.0000000000  7.2822255000
Zn  2.3084788980  1.3328009145  3.6321410400
Zn  2.3084788980  1.3328009145  10.9323099600
4
scale = 1.70000
Li  0.0000000000  0.0000000000  0.0000000000
Zn  0.0000000000  0.0000000000  7.5028990000
Zn  2.3784328040  1.3731888210  3.7422059200
Zn  2.3784328040  1.3731888210  11.2635920800
4
scale = 1.75000
Li  0.0000000000  0.0000000000  0.0000000000
Zn  0.0000000000  0.0000000000  7.7235725000
Zn  2.4483867100  1.4135767275  3.8522708000
Zn  2.4483867100  1.4135767275  11.5948742000
4
scale = 1.80000
Li  0.0000000000  0.0000000000  0.0000000000
Zn  0.0000000000  0.0000000000  7.9442460000
Zn  2.5183406160  1.4539646340  3.9623356800
Zn  2.5183406160  1.4539646340  11.9261563200
4
scale = 1.85000
Li  0.0000000000  0.0000000000  0.0000000000
Zn  0.0000000000  0.0000000000  8.1649195000
Zn  2.5882945220  1.4943525405  4.0724005600
Zn  2.5882945220  1.4943525405  12.2574384400
4
scale = 1.90000
Li  0.0000000000  0.0000000000  0.0000000000
Zn  0.0000000000  0.0000000000  8.3855930000
Zn  2.6582484280  1.5347404470  4.1824654400
Zn  2.6582484280  1.5347404470  12.5887205600
4
scale = 1.95000
Li  0.0000000000  0.0000000000  0.0000000000
Zn  0.0000000000  0.0000000000  8.6062665000
Zn  2.7282023340  1.5751283535  4.2925303200
Zn  2.7282023340  1.5751283535  12.9200026800
4
scale = 2.00000
Li  0.0000000000  0.0000000000  0.0000000000
Zn  0.0000000000  0.0000000000  8.8269400000
Zn  2.7981562400  1.6155162600  4.4025952000
Zn  2.7981562400  1.6155162600  13.2512848000
4
scale = 2.05000
Li  0.0000000000  0.0000000000  0.0000000000
Zn  0.0000000000  0.0000000000  9.0476135000
Zn  2.8681101460  1.6559041665  4.5126600800
Zn  2.8681101460  1.6559041665  13.5825669200
4
scale = 2.10000
Li  0.0000000000  0.0000000000  0.0000000000
Zn  0.0000000000  0.0000000000  9.2682870000
Zn  2.9380640520  1.6962920730  4.6227249600
Zn  2.9380640520  1.6962920730  13.9138490400
4
scale = 2.15000
Li  0.0000000000  0.0000000000  0.0000000000
Zn  0.0000000000  0.0000000000  9.4889605000
Zn  3.0080179580  1.7366799795  4.7327898400
Zn  3.0080179580  1.7366799795  14.2451311600
4
scale = 2.20000
Li  0.0000000000  0.0000000000  0.0000000000
Zn  0.0000000000  0.0000000000  9.7096340000
Zn  3.0779718640  1.7770678860  4.8428547200
Zn  3.0779718640  1.7770678860  14.5764132800
4
scale = 2.25000
Li  0.0000000000  0.0000000000  0.0000000000
Zn  0.0000000000  0.0000000000  9.9303075000
Zn  3.1479257700  1.8174557925  4.9529196000
Zn  3.1479257700  1.8174557925  14.9076954000
4
scale = 2.30000
Li  0.0000000000  0.0000000000  0.0000000000
Zn  0.0000000000  0.0000000000  10.1509810000
Zn  3.2178796760  1.8578436990  5.0629844800
Zn  3.2178796760  1.8578436990  15.2389775200
4
scale = 2.35000
Li  0.0000000000  0.0000000000  0.0000000000
Zn  0.0000000000  0.0000000000  10.3716545000
Zn  3.2878335820  1.8982316055  5.1730493600
Zn  3.2878335820  1.8982316055  15.5702596400
4
scale = 2.40000
Li  0.0000000000  0.0000000000  0.0000000000
Zn  0.0000000000  0.0000000000  10.5923280000
Zn  3.3577874880  1.9386195120  5.2831142400
Zn  3.3577874880  1.9386195120  15.9015417600
4
scale = 2.45000
Li  0.0000000000  0.0000000000  0.0000000000
Zn  0.0000000000  0.0000000000  10.8130015000
Zn  3.4277413940  1.9790074185  5.3931791200
Zn  3.4277413940  1.9790074185  16.2328238800
