8
scale = 0.75000
Na  2.4544404225  1.4170718400  1.0113688575
Na  -0.0000004200  2.8341436800  3.0341065650
Li  3.7319373675  0.6795087600  3.0341065650
Li  1.1769387450  0.6795087600  3.0341065650
Li  2.4544377225  2.8922022900  3.0341065650
Li  -1.2774973575  3.5717067525  1.0113688575
Li  1.2775012650  3.5717067525  1.0113688575
Li  0.0000022800  1.3590132300  1.0113688575
8
scale = 0.80000
Na  2.6180697840  1.5115432960  1.0787934480
Na  -0.0000004480  3.0230865920  3.2363803360
Li  3.9807331920  0.7248093440  3.2363803360
Li  1.2554013280  0.7248093440  3.2363803360
Li  2.6180669040  3.0850157760  3.2363803360
Li  -1.3626638480  3.8098205360  1.0787934480
Li  1.3626680160  3.8098205360  1.0787934480
Li  0.0000024320  1.4496141120  1.0787934480
8
scale = 0.85000
Na  2.7816991455  1.6060147520  1.1462180385
Na  -0.0000004760  3.2120295040  3.4386541070
Li  4.2295290165  0.7701099280  3.4386541070
Li  1.3338639110  0.7701099280  3.4386541070
Li  2.7816960855  3.2778292620  3.4386541070
Li  -1.4478303385  4.0479343195  1.1462180385
Li  1.4478347670  4.0479343195  1.1462180385
Li  0.0000025840  1.5402149940  1.1462180385
8
scale = 0.90000
Na  2.9453285070  1.7004862080  1.2136426290
Na  -0.0000005040  3.4009724160  3.6409278780
Li  4.4783248410  0.8154105120  3.6409278780
Li  1.4123264940  0.8154105120  3.6409278780
Li  2.9453252670  3.4706427480  3.6409278780
Li  -1.5329968290  4.2860481030  1.2136426290
Li  1.5330015180  4.2860481030  1.2136426290
Li  0.0000027360  1.6308158760  1.2136426290
8
scale = 0.95000
Na  3.1089578685  1.7949576640  1.2810672195
Na  -0.0000005320  3.5899153280  3.8432016490
Li  4.7271206655  0.8607110960  3.8432016490
Li  1.4907890770  0.8607110960  3.8432016490
Li  3.1089544485  3.6634562340  3.8432016490
Li  -1.6181633195  4.5241618865  1.2810672195
Li  1.6181682690  4.5241618865  1.2810672195
Li  0.0000028880  1.7214167580  1.2810672195
8
scale = 1.00000
Na  3.2725872300  1.8894291200  1.3484918100
Na  -0.0000005600  3.7788582400  4.0454754200
Li  4.9759164900  0.9060116800  4.0454754200
Li  1.5692516600  0.9060116800  4.0454754200
Li  3.2725836300  3.8562697200  4.0454754200
Li  -1.7033298100  4.7622756700  1.3484918100
Li  1.7033350200  4.7622756700  1.3484918100
Li  0.0000030400  1.8120176400  1.3484918100
8
scale = 1.05000
Na  3.4362165915  1.9839005760  1.4159164005
Na  -0.0000005880  3.9678011520  4.2477491910
Li  5.2247123145  0.9513122640  4.2477491910
Li  1.6477142430  0.9513122640  4.2477491910
Li  3.4362128115  4.0490832060  4.2477491910
Li  -1.7884963005  5.0003894535  1.4159164005
Li  1.7885017710  5.0003894535  1.4159164005
Li  0.0000031920  1.9026185220  1.4159164005
8
scale = 1.10000
Na  3.5998459530  2.0783720320  1.4833409910
Na  -0.0000006160  4.1567440640  4.4500229620
Li  5.4735081390  0.9966128480  4.4500229620
Li  1.7261768260  0.9966128480  4.4500229620
Li  3.5998419930  4.2418966920  4.4500229620
Li  -1.8736627910  5.2385032370  1.4833409910
Li  1.8736685220  5.2385032370  1.4833409910
Li  0.0000033440  1.9932194040  1.4833409910
8
scale = 1.15000
Na  3.7634753145  2.1728434880  1.5507655815
Na  -0.0000006440  4.3456869760  4.6522967330
Li  5.7223039635  1.0419134320  4.6522967330
Li  1.8046394090  1.0419134320  4.6522967330
Li  3.7634711745  4.4347101780  4.6522967330
Li  -1.9588292815  5.4766170205  1.5507655815
Li  1.9588352730  5.4766170205  1.5507655815
Li  0.0000034960  2.0838202860  1.5507655815
8
scale = 1.20000
Na  3.9271046760  2.2673149440  1.6181901720
Na  -0.0000006720  4.5346298880  4.8545705040
Li  5.9710997880  1.0872140160  4.8545705040
Li  1.8831019920  1.0872140160  4.8545705040
Li  3.9271003560  4.6275236640  4.8545705040
Li  -2.0439957720  5.7147308040  1.6181901720
Li  2.0440020240  5.7147308040  1.6181901720
Li  0.0000036480  2.1744211680  1.6181901720
8
scale = 1.25000
Na  4.0907340375  2.3617864000  1.6856147625
Na  -0.0000007000  4.7235728000  5.0568442750
Li  6.2198956125  1.1325146000  5.0568442750
Li  1.9615645750  1.1325146000  5.0568442750
Li  4.0907295375  4.8203371500  5.0568442750
Li  -2.1291622625  5.9528445875  1.6856147625
Li  2.1291687750  5.9528445875  1.6856147625
Li  0.0000038000  2.2650220500  1.6856147625
8
scale = 1.30000
Na  4.2543633990  2.4562578560  1.7530393530
Na  -0.0000007280  4.9125157120  5.2591180460
Li  6.4686914370  1.1778151840  5.2591180460
Li  2.0400271580  1.1778151840  5.2591180460
Li  4.2543587190  5.0131506360  5.2591180460
Li  -2.2143287530  6.1909583710  1.7530393530
Li  2.2143355260  6.1909583710  1.7530393530
Li  0.0000039520  2.3556229320  1.7530393530
8
scale = 1.35000
Na  4.4179927605  2.5507293120  1.8204639435
Na  -0.0000007560  5.1014586240  5.4613918170
Li  6.7174872615  1.2231157680  5.4613918170
Li  2.1184897410  1.2231157680  5.4613918170
Li  4.4179879005  5.2059641220  5.4613918170
Li  -2.2994952435  6.4290721545  1.8204639435
Li  2.2995022770  6.4290721545  1.8204639435
Li  0.0000041040  2.4462238140  1.8204639435
8
scale = 1.40000
Na  4.5816221220  2.6452007680  1.8878885340
Na  -0.0000007840  5.2904015360  5.6636655880
Li  6.9662830860  1.2684163520  5.6636655880
Li  2.1969523240  1.2684163520  5.6636655880
Li  4.5816170820  5.3987776080  5.6636655880
Li  -2.3846617340  6.6671859380  1.8878885340
Li  2.3846690280  6.6671859380  1.8878885340
Li  0.0000042560  2.5368246960  1.8878885340
8
scale = 1.45000
Na  4.7452514835  2.7396722240  1.9553131245
Na  -0.0000008120  5.4793444480  5.8659393590
Li  7.2150789105  1.3137169360  5.8659393590
Li  2.2754149070  1.3137169360  5.8659393590
Li  4.7452462635  5.5915910940  5.8659393590
Li  -2.4698282245  6.9052997215  1.9553131245
Li  2.4698357790  6.9052997215  1.9553131245
Li  0.0000044080  2.6274255780  1.9553131245
8
scale = 1.50000
Na  4.9088808450  2.8341436800  2.0227377150
Na  -0.0000008400  5.6682873600  6.0682131300
Li  7.4638747350  1.3590175200  6.0682131300
Li  2.3538774900  1.3590175200  6.0682131300
Li  4.9088754450  5.7844045800  6.0682131300
Li  -2.5549947150  7.1434135050  2.0227377150
Li  2.5550025300  7.1434135050  2.0227377150
Li  0.0000045600  2.7180264600  2.0227377150
8
scale = 1.55000
Na  5.0725102065  2.9286151360  2.0901623055
Na  -0.0000008680  5.8572302720  6.2704869010
Li  7.7126705595  1.4043181040  6.2704869010
Li  2.4323400730  1.4043181040  6.2704869010
Li  5.0725046265  5.9772180660  6.2704869010
Li  -2.6401612055  7.3815272885  2.0901623055
Li  2.6401692810  7.3815272885  2.0901623055
Li  0.0000047120  2.8086273420  2.0901623055
8
scale = 1.60000
Na  5.2361395680  3.0230865920  2.1575868960
Na  -0.0000008960  6.0461731840  6.4727606720
Li  7.9614663840  1.4496186880  6.4727606720
Li  2.5108026560  1.4496186880  6.4727606720
Li  5.2361338080  6.1700315520  6.4727606720
Li  -2.7253276960  7.6196410720  2.1575868960
Li  2.7253360320  7.6196410720  2.1575868960
Li  0.0000048640  2.8992282240  2.1575868960
8
scale = 1.65000
Na  5.3997689295  3.1175580480  2.2250114865
Na  -0.0000009240  6.2351160960  6.6750344430
Li  8.2102622085  1.4949192720  6.6750344430
Li  2.5892652390  1.4949192720  6.6750344430
Li  5.3997629895  6.3628450380  6.6750344430
Li  -2.8104941865  7.8577548555  2.2250114865
Li  2.8105027830  7.8577548555  2.2250114865
Li  0.0000050160  2.9898291060  2.2250114865
8
scale = 1.70000
Na  5.5633982910  3.2120295040  2.2924360770
Na  -0.0000009520  6.4240590080  6.8773082140
Li  8.4590580330  1.5402198560  6.8773082140
Li  2.6677278220  1.5402198560  6.8773082140
Li  5.5633921710  6.5556585240  6.8773082140
Li  -2.8956606770  8.0958686390  2.2924360770
Li  2.8956695340  8.0958686390  2.2924360770
Li  0.0000051680  3.0804299880  2.2924360770
8
scale = 1.75000
Na  5.7270276525  3.3065009600  2.3598606675
Na  -0.0000009800  6.6130019200  7.0795819850
Li  8.7078538575  1.5855204400  7.0795819850
Li  2.7461904050  1.5855204400  7.0795819850
Li  5.7270213525  6.7484720100  7.0795819850
Li  -2.9808271675  8.3339824225  2.3598606675
Li  2.9808362850  8.3339824225  2.3598606675
Li  0.0000053200  3.1710308700  2.3598606675
8
scale = 1.80000
Na  5.8906570140  3.4009724160  2.4272852580
Na  -0.0000010080  6.8019448320  7.2818557560
Li  8.9566496820  1.6308210240  7.2818557560
Li  2.8246529880  1.6308210240  7.2818557560
Li  5.8906505340  6.9412854960  7.2818557560
Li  -3.0659936580  8.5720962060  2.4272852580
Li  3.0660030360  8.5720962060  2.4272852580
Li  0.0000054720  3.2616317520  2.4272852580
8
scale = 1.85000
Na  6.0542863755  3.4954438720  2.4947098485
Na  -0.0000010360  6.9908877440  7.4841295270
Li  9.2054455065  1.6761216080  7.4841295270
Li  2.9031155710  1.6761216080  7.4841295270
Li  6.0542797155  7.1340989820  7.4841295270
Li  -3.1511601485  8.8102099895  2.4947098485
Li  3.1511697870  8.8102099895  2.4947098485
Li  0.0000056240  3.3522326340  2.4947098485
8
scale = 1.90000
Na  6.2179157370  3.5899153280  2.5621344390
Na  -0.0000010640  7.1798306560  7.6864032980
Li  9.4542413310  1.7214221920  7.6864032980
Li  2.9815781540  1.7214221920  7.6864032980
Li  6.2179088970  7.3269124680  7.6864032980
Li  -3.2363266390  9.0483237730  2.5621344390
Li  3.2363365380  9.0483237730  2.5621344390
Li  0.0000057760  3.4428335160  2.5621344390
8
scale = 1.95000
Na  6.3815450985  3.6843867840  2.6295590295
Na  -0.0000010920  7.3687735680  7.8886770690
Li  9.7030371555  1.7667227760  7.8886770690
Li  3.0600407370  1.7667227760  7.8886770690
Li  6.3815380785  7.5197259540  7.8886770690
Li  -3.3214931295  9.2864375565  2.6295590295
Li  3.3215032890  9.2864375565  2.6295590295
Li  0.0000059280  3.5334343980  2.6295590295
8
scale = 2.00000
Na  6.5451744600  3.7788582400  2.6969836200
Na  -0.0000011200  7.5577164800  8.0909508400
Li  9.9518329800  1.8120233600  8.0909508400
Li  3.1385033200  1.8120233600  8.0909508400
Li  6.5451672600  7.7125394400  8.0909508400
Li  -3.4066596200  9.5245513400  2.6969836200
Li  3.4066700400  9.5245513400  2.6969836200
Li  0.0000060800  3.6240352800  2.6969836200
8
scale = 2.05000
Na  6.7088038215  3.8733296960  2.7644082105
Na  -0.0000011480  7.7466593920  8.2932246110
Li  10.2006288045  1.8573239440  8.2932246110
Li  3.2169659030  1.8573239440  8.2932246110
Li  6.7087964415  7.9053529260  8.2932246110
Li  -3.4918261105  9.7626651235  2.7644082105
Li  3.4918367910  9.7626651235  2.7644082105
Li  0.0000062320  3.7146361620  2.7644082105
8
scale = 2.10000
Na  6.8724331830  3.9678011520  2.8318328010
Na  -0.0000011760  7.9356023040  8.4954983820
Li  10.4494246290  1.9026245280  8.4954983820
Li  3.2954284860  1.9026245280  8.4954983820
Li  6.8724256230  8.0981664120  8.4954983820
Li  -3.5769926010  10.0007789070  2.8318328010
Li  3.5770035420  10.0007789070  2.8318328010
Li  0.0000063840  3.8052370440  2.8318328010
8
scale = 2.15000
Na  7.0360625445  4.0622726080  2.8992573915
Na  -0.0000012040  8.1245452160  8.6977721530
Li  10.6982204535  1.9479251120  8.6977721530
Li  3.3738910690  1.9479251120  8.6977721530
Li  7.0360548045  8.2909798980  8.6977721530
Li  -3.6621590915  10.2388926905  2.8992573915
Li  3.6621702930  10.2388926905  2.8992573915
Li  0.0000065360  3.8958379260  2.8992573915
8
scale = 2.20000
Na  7.1996919060  4.1567440640  2.9666819820
Na  -0.0000012320  8.3134881280  8.9000459240
Li  10.9470162780  1.9932256960  8.9000459240
Li  3.4523536520  1.9932256960  8.9000459240
Li  7.1996839860  8.4837933840  8.9000459240
Li  -3.7473255820  10.4770064740  2.9666819820
Li  3.7473370440  10.4770064740  2.9666819820
Li  0.0000066880  3.9864388080  2.9666819820
8
scale = 2.25000
Na  7.3633212675  4.2512155200  3.0341065725
Na  -0.0000012600  8.5024310400  9.1023196950
Li  11.1958121025  2.0385262800  9.1023196950
Li  3.5308162350  2.0385262800  9.1023196950
Li  7.3633131675  8.6766068700  9.1023196950
Li  -3.8324920725  10.7151202575  3.0341065725
Li  3.8325037950  10.7151202575  3.0341065725
Li  0.0000068400  4.0770396900  3.0341065725
8
scale = 2.30000
Na  7.5269506290  4.3456869760  3.1015311630
Na  -0.0000012880  8.6913739520  9.3045934660
Li  11.4446079270  2.0838268640  9.3045934660
Li  3.6092788180  2.0838268640  9.3045934660
Li  7.5269423490  8.8694203560  9.3045934660
Li  -3.9176585630  10.9532340410  3.1015311630
Li  3.9176705460  10.9532340410  3.1015311630
Li  0.0000069920  4.1676405720  3.1015311630
8
scale = 2.35000
Na  7.6905799905  4.4401584320  3.1689557535
Na  -0.0000013160  8.8803168640  9.5068672370
Li  11.6934037515  2.1291274480  9.5068672370
Li  3.6877414010  2.1291274480  9.5068672370
Li  7.6905715305  9.0622338420  9.5068672370
Li  -4.0028250535  11.1913478245  3.1689557535
Li  4.0028372970  11.1913478245  3.1689557535
Li  0.0000071440  4.2582414540  3.1689557535
8
scale = 2.40000
Na  7.8542093520  4.5346298880  3.2363803440
Na  -0.0000013440  9.0692597760  9.7091410080
Li  11.9421995760  2.1744280320  9.7091410080
Li  3.7662039840  2.1744280320  9.7091410080
Li  7.8542007120  9.2550473280  9.7091410080
Li  -4.0879915440  11.4294616080  3.2363803440
Li  4.0880040480  11.4294616080  3.2363803440
Li  0.0000072960  4.3488423360  3.2363803440
8
scale = 2.45000
Na  8.0178387135  4.6291013440  3.3038049345
Na  -0.0000013720  9.2582026880  9.9114147790
Li  12.1909954005  2.2197286160  9.9114147790
Li  3.8446665670  2.2197286160  9.9114147790
Li  8.0178298935  9.4478608140  9.9114147790
Li  -4.1731580345  11.6675753915  3.3038049345
Li  4.1731707990  11.6675753915  3.3038049345
Li  0.0000074480  4.4394432180  3.3038049345
