4
scale = 0.75000
Na  0.0000000000  0.0000000000  0.0000000000
Li  2.2217098575  0.7773047025  -0.7174894050
Li  0.3199592325  2.3319141000  -0.7174894050
Li  1.2708345450  1.5546093975  -2.8497703125
4
scale = 0.80000
Na  0.0000000000  0.0000000000  0.0000000000
Li  2.3698238480  0.8291250160  -0.7653220320
Li  0.3412898480  2.4873750400  -0.7653220320
Li  1.3555568480  1.6582500240  -3.0397550000
4
scale = 0.85000
Na  0.0000000000  0.0000000000  0.0000000000
Li  2.5179378385  0.8809453295  -0.8131546590
Li  0.3626204635  2.6428359800  -0.8131546590
Li  1.4402791510  1.7618906505  -3.2297396875
4
scale = 0.90000
Na  0.0000000000  0.0000000000  0.0000000000
Li  2.6660518290  0.9327656430  -0.8609872860
Li  0.3839510790  2.7982969200  -0.8609872860
Li  1.5250014540  1.8655312770  -3.4197243750
4
scale = 0.95000
Na  0.0000000000  0.0000000000  0.0000000000
Li  2.8141658195  0.9845859565  -0.9088199130
Li  0.4052816945  2.9537578600  -0.9088199130
Li  1.6097237570  1.9691719035  -3.6097090625
4
scale = 1.00000
Na  0.0000000000  0.0000000000  0.0000000000
Li  2.9622798100  1.0364062700  -0.9566525400
Li  0.4266123100  3.1092188000  -0.9566525400
Li  1.6944460600  2.0728125300  -3.7996937500
4
scale = 1.05000
Na  0.0000000000  0.0000000000  0.0000000000
Li  3.1103938005  1.0882265835  -1.0044851670
Li  0.4479429255  3.2646797400  -1.0044851670
Li  1.7791683630  2.1764531565  -3.9896784375
4
scale = 1.10000
Na  0.0000000000  0.0000000000  0.0000000000
Li  3.2585077910  1.1400468970  -1.0523177940
Li  0.4692735410  3.4201406800  -1.0523177940
Li  1.8638906660  2.2800937830  -4.1796631250
4
scale = 1.15000
Na  0.0000000000  0.0000000000  0.0000000000
Li  3.4066217815  1.1918672105  -1.1001504210
Li  0.4906041565  3.5756016200  -1.1001504210
Li  1.9486129690  2.3837344095  -4.3696478125
4
scale = 1.20000
Na  0.0000000000  0.0000000000  0.0000000000
Li  3.5547357720  1.2436875240  -1.1479830480
Li  0.5119347720  3.7310625600  -1.1479830480
Li  2.0333352720  2.4873750360  -4.5596325000
4
scale = 1.25000
Na  0.0000000000  0.0000000000  0.0000000000
Li  3.7028497625  1.2955078375  -1.1958156750
Li  0.5332653875  3.8865235000  -1.1958156750
Li  2.1180575750  2.5910156625  -4.7496171875
4
scale = 1.30000
Na  0.0000000000  0.0000000000  0.0000000000
Li  3.8509637530  1.3473281510  -1.2436483020
Li  0.5545960030  4.0419844400  -1.2436483020
Li  2.2027798780  2.6946562890  -4.9396018750
4
scale = 1.35000
Na  0.0000000000  0.0000000000  0.0000000000
Li  3.9990777435  1.3991484645  -1.2914809290
Li  0.5759266185  4.1974453800  -1.2914809290
Li  2.2875021810  2.7982969155  -5.1295865625
4
scale = 1.40000
Na  0.0000000000  0.0000000000  0.0000000000
Li  4.1471917340  1.4509687780  -1.3393135560
Li  0.5972572340  4.3529063200  -1.3393135560
Li  2.3722244840  2.9019375420  -5.3195712500
4
scale = 1.45000
Na  0.0000000000  0.0000000000  0.0000000000
Li  4.2953057245  1.5027890915  -1.3871461830
Li  0.6185878495  4.5083672600  -1.3871461830
Li  2.4569467870  3.0055781685  -5.5095559375
4
scale = 1.50000
Na  0.0000000000  0.0000000000  0.0000000000
Li  4.4434197150  1.5546094050  -1.4349788100
Li  0.6399184650  4.6638282000  -1.4349788100
Li  2.5416690900  3.1092187950  -5.6995406250
4
scale = 1.55000
Na  0.0000000000  0.0000000000  0.0000000000
Li  4.5915337055  1.6064297185  -1.4828114370
Li  0.6612490805  4.8192891400  -1.4828114370
Li  2.6263913930  3.2128594215  -5.8895253125
4
scale = 1.60000
Na  0.0000000000  0.0000000000  0.0000000000
Li  4.7396476960  1.6582500320  -1.5306440640
Li  0.6825796960  4.9747500800  -1.5306440640
Li  2.7111136960  3.3165000480  -6.0795100000
4
scale = 1.65000
Na  0.0000000000  0.0000000000  0.0000000000
Li  4.8877616865  1.7100703455  -1.5784766910
Li  0.7039103115  5.1302110200  -1.5784766910
Li  2.7958359990  3.4201406745  -6.2694946875
4
scale = 1.70000
Na  0.0000000000  0.0000000000  0.0000000000
Li  5.0358756770  1.7618906590  -1.6263093180
Li  0.7252409270  5.2856719600  -1.6263093180
Li  2.8805583020  3.5237813010  -6.4594793750
4
scale = 1.75000
Na  0.0000000000  0.0000000000  0.0000000000
Li  5.1839896675  1.8137109725  -1.6741419450
Li  0.7465715425  5.4411329000  -1.6741419450
Li  2.9652806050  3.6274219275  -6.6494640625
4
scale = 1.80000
Na  0.0000000000  0.0000000000  0.0000000000
Li  5.3321036580  1.8655312860  -1.7219745720
Li  0.7679021580  5.5965938400  -1.7219745720
Li  3.0500029080  3.7310625540  -6.8394487500
4
scale = 1.85000
Na  0.0000000000  0.0000000000  0.0000000000
Li  5.4802176485  1.9173515995  -1.7698071990
Li  0.7892327735  5.7520547800  -1.7698071990
Li  3.1347252110  3.8347031805  -7.0294334375
4
scale = 1.90000
Na  0.0000000000  0.0000000000  0.0000000000
Li  5.6283316390  1.9691719130  -1.8176398260
Li  0.8105633890  5.9075157200  -1.8176398260
Li  3.2194475140  3.9383438070  -7.2194181250
4
scale = 1.95000
Na  0.0000000000  0.0000000000  0.0000000000
Li  5.7764456295  2.0209922265  -1.8654724530
Li  0.8318940045  6.0629766600  -1.8654724530
Li  3.3041698170  4.0419844335  -7.4094028125
4
scale = 2.00000
Na  0.0000000000  0.0000000000  0.0000000000
Li  5.9245596200  2.0728125400  -1.9133050800
Li  0.8532246200  6.2184376000  -1.9133050800
Li  3.3888921200  4.1456250600  -7.5993875000
4
scale = 2.05000
Na  0.0000000000  0.0000000000  0.0000000000
Li  6.0726736105  2.1246328535  -1.9611377070
Li  0.8745552355  6.3738985400  -1.9611377070
Li  3.4736144230  4.2492656865  -7.7893721875
4
scale = 2.10000
Na  0.0000000000  0.0000000000  0.0000000000
Li  6.2207876010  2.1764531670  -2.0089703340
Li  0.8958858510  6.5293594800  -2.0089703340
Li  3.5583367260  4.3529063130  -7.9793568750
4
scale = 2.15000
Na  0.0000000000  0.0000000000  0.0000000000
Li  6.3689015915  2.2282734805  -2.0568029610
Li  0.9172164665  6.6848204200  -2.0568029610
Li  3.6430590290  4.4565469395  -8.1693415625
4
scale = 2.20000
Na  0.0000000000  0.0000000000  0.0000000000
Li  6.5170155820  2.2800937940  -2.1046355880
Li  0.9385470820  6.8402813600  -2.1046355880
Li  3.7277813320  4.5601875660  -8.3593262500
4
scale = 2.25000
Na  0.0000000000  0.0000000000  0.0000000000
Li  6.6651295725  2.3319141075  -2.1524682150
Li  0.9598776975  6.9957423000  -2.1524682150
Li  3.8125036350  4.6638281925  -8.5493109375
4
scale = 2.30000
Na  0.0000000000  0.0000000000  0.0000000000
Li  6.8132435630  2.3837344210  -2.2003008420
Li  0.9812083130  7.1512032400  -2.2003008420
Li  3.8972259380  4.7674688190  -8.7392956250
4
scale = 2.35000
Na  0.0000000000  0.0000000000  0.0000000000
Li  6.9613575535  2.4355547345  -2.2481334690
Li  1.0025389285  7.3066641800  -2.2481334690
Li  3.9819482410  4.8711094455  -8.9292803125
4
scale = 2.40000
Na  0.0000000000  0.0000000000  0.0000000000
Li  7.1094715440  2.4873750480  -2.2959660960
Li  1.0238695440  7.4621251200  -2.2959660960
Li  4.0666705440  4.9747500720  -9.1192650000
4
scale = 2.45000
Na  0.0000000000  0.0000000000  0.0000000000
Li  7.2575855345  2.5391953615  -2.3437987230
Li  1.0452001595  7.6175860600  -2.3437987230
Li  4.1513928470  5.0783906985  -9.3092496875
