4
scale = 0.75000
Sr  2.7394279500  0.9548469600  -1.0950887100
Sr  0.4589159025  2.8645408725  -1.0950887100
Sr  1.5991719300  1.9096939125  -3.8160262275
Li  0.0000000000  0.0000000000  0.0000000000
4
scale = 0.80000
Sr  2.9220564800  1.0185034240  -1.1680946240
Sr  0.4895102960  3.0555102640  -1.1680946240
Sr  1.7057833920  2.0370068400  -4.0704279760
Li  0.0000000000  0.0000000000  0.0000000000
4
scale = 0.85000
Sr  3.1046850100  1.0821598880  -1.2411005380
Sr  0.5201046895  3.2464796555  -1.2411005380
Sr  1.8123948540  2.1643197675  -4.3248297245
Li  0.0000000000  0.0000000000  0.0000000000
4
scale = 0.90000
Sr  3.2873135400  1.1458163520  -1.3141064520
Sr  0.5506990830  3.4374490470  -1.3141064520
Sr  1.9190063160  2.2916326950  -4.5792314730
Li  0.0000000000  0.0000000000  0.0000000000
4
scale = 0.95000
Sr  3.4699420700  1.2094728160  -1.3871123660
Sr  0.5812934765  3.6284184385  -1.3871123660
Sr  2.0256177780  2.4189456225  -4.8336332215
Li  0.0000000000  0.0000000000  0.0000000000
4
scale = 1.00000
Sr  3.6525706000  1.2731292800  -1.4601182800
Sr  0.6118878700  3.8193878300  -1.4601182800
Sr  2.1322292400  2.5462585500  -5.0880349700
Li  0.0000000000  0.0000000000  0.0000000000
4
scale = 1.05000
Sr  3.8351991300  1.3367857440  -1.5331241940
Sr  0.6424822635  4.0103572215  -1.5331241940
Sr  2.2388407020  2.6735714775  -5.3424367185
Li  0.0000000000  0.0000000000  0.0000000000
4
scale = 1.10000
Sr  4.0178276600  1.4004422080  -1.6061301080
Sr  0.6730766570  4.2013266130  -1.6061301080
Sr  2.3454521640  2.8008844050  -5.5968384670
Li  0.0000000000  0.0000000000  0.0000000000
4
scale = 1.15000
Sr  4.2004561900  1.4640986720  -1.6791360220
Sr  0.7036710505  4.3922960045  -1.6791360220
Sr  2.4520636260  2.9281973325  -5.8512402155
Li  0.0000000000  0.0000000000  0.0000000000
4
scale = 1.20000
Sr  4.3830847200  1.5277551360  -1.7521419360
Sr  0.7342654440  4.5832653960  -1.7521419360
Sr  2.5586750880  3.0555102600  -6.1056419640
Li  0.0000000000  0.0000000000  0.0000000000
4
scale = 1.25000
Sr  4.5657132500  1.5914116000  -1.8251478500
Sr  0.7648598375  4.7742347875  -1.8251478500
Sr  2.6652865500  3.1828231875  -6.3600437125
Li  0.0000000000  0.0000000000  0.0000000000
4
scale = 1.30000
Sr  4.7483417800  1.6550680640  -1.8981537640
Sr  0.7954542310  4.9652041790  -1.8981537640
Sr  2.7718980120  3.3101361150  -6.6144454610
Li  0.0000000000  0.0000000000  0.0000000000
4
scale = 1.35000
Sr  4.9309703100  1.7187245280  -1.9711596780
Sr  0.8260486245  5.1561735705  -1.9711596780
Sr  2.8785094740  3.4374490425  -6.8688472095
Li  0.0000000000  0.0000000000  0.0000000000
4
scale = 1.40000
Sr  5.1135988400  1.7823809920  -2.0441655920
Sr  0.8566430180  5.3471429620  -2.0441655920
Sr  2.9851209360  3.5647619700  -7.1232489580
Li  0.0000000000  0.0000000000  0.0000000000
4
scale = 1.45000
Sr  5.2962273700  1.8460374560  -2.1171715060
Sr  0.8872374115  5.5381123535  -2.1171715060
Sr  3.0917323980  3.6920748975  -7.3776507065
Li  0.0000000000  0.0000000000  0.0000000000
4
scale = 1.50000
Sr  5.4788559000  1.9096939200  -2.1901774200
Sr  0.9178318050  5.7290817450  -2.1901774200
Sr  3.1983438600  3.8193878250  -7.6320524550
Li  0.0000000000  0.0000000000  0.0000000000
4
scale = 1.55000
Sr  5.6614844300  1.9733503840  -2.2631833340
Sr  0.9484261985  5.9200511365  -2.2631833340
Sr  3.3049553220  3.9467007525  -7.8864542035
Li  0.0000000000  0.0000000000  0.0000000000
4
scale = 1.60000
Sr  5.8441129600  2.0370068480  -2.3361892480
Sr  0.9790205920  6.1110205280  -2.3361892480
Sr  3.4115667840  4.0740136800  -8.1408559520
Li  0.0000000000  0.0000000000  0.0000000000
4
scale = 1.65000
Sr  6.0267414900  2.1006633120  -2.4091951620
Sr  1.0096149855  6.3019899195  -2.4091951620
Sr  3.5181782460  4.2013266075  -8.3952577005
Li  0.0000000000  0.0000000000  0.0000000000
4
scale = 1.70000
Sr  6.2093700200  2.1643197760  -2.4822010760
Sr  1.0402093790  6.4929593110  -2.4822010760
Sr  3.6247897080  4.3286395350  -8.6496594490
Li  0.0000000000  0.0000000000  0.0000000000
4
scale = 1.75000
Sr  6.3919985500  2.2279762400  -2.5552069900
Sr  1.0708037725  6.6839287025  -2.5552069900
Sr  3.7314011700  4.4559524625  -8.9040611975
Li  0.0000000000  0.0000000000  0.0000000000
4
scale = 1.80000
Sr  6.5746270800  2.2916327040  -2.6282129040
Sr  1.1013981660  6.8748980940  -2.6282129040
Sr  3.8380126320  4.5832653900  -9.1584629460
Li  0.0000000000  0.0000000000  0.0000000000
4
scale = 1.85000
Sr  6.7572556100  2.3552891680  -2.7012188180
Sr  1.1319925595  7.0658674855  -2.7012188180
Sr  3.9446240940  4.7105783175  -9.4128646945
Li  0.0000000000  0.0000000000  0.0000000000
4
scale = 1.90000
Sr  6.9398841400  2.4189456320  -2.7742247320
Sr  1.1625869530  7.2568368770  -2.7742247320
Sr  4.0512355560  4.8378912450  -9.6672664430
Li  0.0000000000  0.0000000000  0.0000000000
4
scale = 1.95000
Sr  7.1225126700  2.4826020960  -2.8472306460
Sr  1.1931813465  7.4478062685  -2.8472306460
Sr  4.1578470180  4.9652041725  -9.9216681915
Li  0.0000000000  0.0000000000  0.0000000000
4
scale = 2.00000
Sr  7.3051412000  2.5462585600  -2.9202365600
Sr  1.2237757400  7.6387756600  -2.9202365600
Sr  4.2644584800  5.0925171000  -10.1760699400
Li  0.0000000000  0.0000000000  0.0000000000
4
scale = 2.05000
Sr  7.4877697300  2.6099150240  -2.9932424740
Sr  1.2543701335  7.8297450515  -2.9932424740
Sr  4.3710699420  5.2198300275  -10.4304716885
Li  0.0000000000  0.0000000000  0.0000000000
4
scale = 2.10000
Sr  7.6703982600  2.6735714880  -3.0662483880
Sr  1.2849645270  8.0207144430  -3.0662483880
Sr  4.4776814040  5.3471429550  -10.6848734370
Li  0.0000000000  0.0000000000  0.0000000000
4
scale = 2.15000
Sr  7.8530267900  2.7372279520  -3.1392543020
Sr  1.3155589205  8.2116838345  -3.1392543020
Sr  4.5842928660  5.4744558825  -10.9392751855
Li  0.0000000000  0.0000000000  0.0000000000
4
scale = 2.20000
Sr  8.0356553200  2.8008844160  -3.2122602160
Sr  1.3461533140  8.4026532260  -3.2122602160
Sr  4.6909043280  5.6017688100  -11.1936769340
Li  0.0000000000  0.0000000000  0.0000000000
4
scale = 2.25000
Sr  8.2182838500  2.8645408800  -3.2852661300
Sr  1.3767477075  8.5936226175  -3.2852661300
Sr  4.7975157900  5.7290817375  -11.4480786825
Li  0.0000000000  0.0000000000  0.0000000000
4
scale = 2.30000
Sr  8.4009123800  2.9281973440  -3.3582720440
Sr  1.4073421010  8.7845920090  -3.3582720440
Sr  4.9041272520  5.8563946650  -11.7024804310
Li  0.0000000000  0.0000000000  0.0000000000
4
scale = 2.35000
Sr  8.5835409100  2.9918538080  -3.4312779580
Sr  1.4379364945  8.9755614005  -3.4312779580
Sr  5.0107387140  5.9837075925  -11.9568821795
Li  0.0000000000  0.0000000000  0.0000000000
4
scale = 2.40000
Sr  8.7661694400  3.0555102720  -3.5042838720
Sr  1.4685308880  9.1665307920  -3.5042838720
Sr  5.1173501760  6.1110205200  -12.2112839280
Li  0.0000000000  0.0000000000  0.0000000000
4
scale = 2.45000
Sr  8.9487979700  3.1191667360  -3.5772897860
Sr  1.4991252815  9.3575001835  -3.5772897860
Sr  5.2239616380  6.2383334475  -12.4656856765
Li  0.0000000000  0.0000000000  0.0000000000
