8
scale = 0.75000
Sr  0.0000000225  1.7891064150  1.2369369375
Sr  1.4929634250  4.3749948450  1.2369369375
Sr  -1.4929633200  4.3749948450  1.2369369375
Sr  3.0423750075  3.4804416375  3.7108108125
Sr  1.5494116050  0.8945532075  3.7108108125
Sr  4.5353383500  0.8945532075  3.7108108125
Li  0.0000000450  3.5130320400  3.7108108125
Li  3.0423749850  1.7565160200  1.2369369375
8
scale = 0.80000
Sr  0.0000000240  1.9083801760  1.3193994000
Sr  1.5924943200  4.6666611680  1.3193994000
Sr  -1.5924942080  4.6666611680  1.3193994000
Sr  3.2452000080  3.7124710800  3.9581982000
Sr  1.6527057120  0.9541900880  3.9581982000
Sr  4.8376942400  0.9541900880  3.9581982000
Li  0.0000000480  3.7472341760  3.9581982000
Li  3.2451999840  1.8736170880  1.3193994000
8
scale = 0.85000
Sr  0.0000000255  2.0276539370  1.4018618625
Sr  1.6920252150  4.9583274910  1.4018618625
Sr  -1.6920250960  4.9583274910  1.4018618625
Sr  3.4480250085  3.9445005225  4.2055855875
Sr  1.7559998190  1.0138269685  4.2055855875
Sr  5.1400501300  1.0138269685  4.2055855875
Li  0.0000000510  3.9814363120  4.2055855875
Li  3.4480249830  1.9907181560  1.4018618625
8
scale = 0.90000
Sr  0.0000000270  2.1469276980  1.4843243250
Sr  1.7915561100  5.2499938140  1.4843243250
Sr  -1.7915559840  5.2499938140  1.4843243250
Sr  3.6508500090  4.1765299650  4.4529729750
Sr  1.8592939260  1.0734638490  4.4529729750
Sr  5.4424060200  1.0734638490  4.4529729750
Li  0.0000000540  4.2156384480  4.4529729750
Li  3.6508499820  2.1078192240  1.4843243250
8
scale = 0.95000
Sr  0.0000000285  2.2662014590  1.5667867875
Sr  1.8910870050  5.5416601370  1.5667867875
Sr  -1.8910868720  5.5416601370  1.5667867875
Sr  3.8536750095  4.4085594075  4.7003603625
Sr  1.9625880330  1.1331007295  4.7003603625
Sr  5.7447619100  1.1331007295  4.7003603625
Li  0.0000000570  4.4498405840  4.7003603625
Li  3.8536749810  2.2249202920  1.5667867875
8
scale = 1.00000
Sr  0.0000000300  2.3854752200  1.6492492500
Sr  1.9906179000  5.8333264600  1.6492492500
Sr  -1.9906177600  5.8333264600  1.6492492500
Sr  4.0565000100  4.6405888500  4.9477477500
Sr  2.0658821400  1.1927376100  4.9477477500
Sr  6.0471178000  1.1927376100  4.9477477500
Li  0.0000000600  4.6840427200  4.9477477500
Li  4.0564999800  2.3420213600  1.6492492500
8
scale = 1.05000
Sr  0.0000000315  2.5047489810  1.7317117125
Sr  2.0901487950  6.1249927830  1.7317117125
Sr  -2.0901486480  6.1249927830  1.7317117125
Sr  4.2593250105  4.8726182925  5.1951351375
Sr  2.1691762470  1.2523744905  5.1951351375
Sr  6.3494736900  1.2523744905  5.1951351375
Li  0.0000000630  4.9182448560  5.1951351375
Li  4.2593249790  2.4591224280  1.7317117125
8
scale = 1.10000
Sr  0.0000000330  2.6240227420  1.8141741750
Sr  2.1896796900  6.4166591060  1.8141741750
Sr  -2.1896795360  6.4166591060  1.8141741750
Sr  4.4621500110  5.1046477350  5.4425225250
Sr  2.2724703540  1.3120113710  5.4425225250
Sr  6.6518295800  1.3120113710  5.4425225250
Li  0.0000000660  5.1524469920  5.4425225250
Li  4.4621499780  2.5762234960  1.8141741750
8
scale = 1.15000
Sr  0.0000000345  2.7432965030  1.8966366375
Sr  2.2892105850  6.7083254290  1.8966366375
Sr  -2.2892104240  6.7083254290  1.8966366375
Sr  4.6649750115  5.3366771775  5.6899099125
Sr  2.3757644610  1.3716482515  5.6899099125
Sr  6.9541854700  1.3716482515  5.6899099125
Li  0.0000000690  5.3866491280  5.6899099125
Li  4.6649749770  2.6933245640  1.8966366375
8
scale = 1.20000
Sr  0.0000000360  2.8625702640  1.9790991000
Sr  2.3887414800  6.9999917520  1.9790991000
Sr  -2.3887413120  6.9999917520  1.9790991000
Sr  4.8678000120  5.5687066200  5.9372973000
Sr  2.4790585680  1.4312851320  5.9372973000
Sr  7.2565413600  1.4312851320  5.9372973000
Li  0.0000000720  5.6208512640  5.9372973000
Li  4.8677999760  2.8104256320  1.9790991000
8
scale = 1.25000
Sr  0.0000000375  2.9818440250  2.0615615625
Sr  2.4882723750  7.2916580750  2.0615615625
Sr  -2.4882722000  7.2916580750  2.0615615625
Sr  5.0706250125  5.8007360625  6.1846846875
Sr  2.5823526750  1.4909220125  6.1846846875
Sr  7.5588972500  1.4909220125  6.1846846875
Li  0.0000000750  5.8550534000  6.1846846875
Li  5.0706249750  2.9275267000  2.0615615625
8
scale = 1.30000
Sr  0.0000000390  3.1011177860  2.1440240250
Sr  2.5878032700  7.5833243980  2.1440240250
Sr  -2.5878030880  7.5833243980  2.1440240250
Sr  5.2734500130  6.0327655050  6.4320720750
Sr  2.6856467820  1.5505588930  6.4320720750
Sr  7.8612531400  1.5505588930  6.4320720750
Li  0.0000000780  6.0892555360  6.4320720750
Li  5.2734499740  3.0446277680  2.1440240250
8
scale = 1.35000
Sr  0.0000000405  3.2203915470  2.2264864875
Sr  2.6873341650  7.8749907210  2.2264864875
Sr  -2.6873339760  7.8749907210  2.2264864875
Sr  5.4762750135  6.2647949475  6.6794594625
Sr  2.7889408890  1.6101957735  6.6794594625
Sr  8.1636090300  1.6101957735  6.6794594625
Li  0.0000000810  6.3234576720  6.6794594625
Li  5.4762749730  3.1617288360  2.2264864875
8
scale = 1.40000
Sr  0.0000000420  3.3396653080  2.3089489500
Sr  2.7868650600  8.1666570440  2.3089489500
Sr  -2.7868648640  8.1666570440  2.3089489500
Sr  5.6791000140  6.4968243900  6.9268468500
Sr  2.8922349960  1.6698326540  6.9268468500
Sr  8.4659649200  1.6698326540  6.9268468500
Li  0.0000000840  6.5576598080  6.9268468500
Li  5.6790999720  3.2788299040  2.3089489500
8
scale = 1.45000
Sr  0.0000000435  3.4589390690  2.3914114125
Sr  2.8863959550  8.4583233670  2.3914114125
Sr  -2.8863957520  8.4583233670  2.3914114125
Sr  5.8819250145  6.7288538325  7.1742342375
Sr  2.9955291030  1.7294695345  7.1742342375
Sr  8.7683208100  1.7294695345  7.1742342375
Li  0.0000000870  6.7918619440  7.1742342375
Li  5.8819249710  3.3959309720  2.3914114125
8
scale = 1.50000
Sr  0.0000000450  3.5782128300  2.4738738750
Sr  2.9859268500  8.7499896900  2.4738738750
Sr  -2.9859266400  8.7499896900  2.4738738750
Sr  6.0847500150  6.9608832750  7.4216216250
Sr  3.0988232100  1.7891064150  7.4216216250
Sr  9.0706767000  1.7891064150  7.4216216250
Li  0.0000000900  7.0260640800  7.4216216250
Li  6.0847499700  3.5130320400  2.4738738750
8
scale = 1.55000
Sr  0.0000000465  3.6974865910  2.5563363375
Sr  3.0854577450  9.0416560130  2.5563363375
Sr  -3.0854575280  9.0416560130  2.5563363375
Sr  6.2875750155  7.1929127175  7.6690090125
Sr  3.2021173170  1.8487432955  7.6690090125
Sr  9.3730325900  1.8487432955  7.6690090125
Li  0.0000000930  7.2602662160  7.6690090125
Li  6.2875749690  3.6301331080  2.5563363375
8
scale = 1.60000
Sr  0.0000000480  3.8167603520  2.6387988000
Sr  3.1849886400  9.3333223360  2.6387988000
Sr  -3.1849884160  9.3333223360  2.6387988000
Sr  6.4904000160  7.4249421600  7.9163964000
Sr  3.3054114240  1.9083801760  7.9163964000
Sr  9.6753884800  1.9083801760  7.9163964000
Li  0.0000000960  7.4944683520  7.9163964000
Li  6.4903999680  3.7472341760  2.6387988000
8
scale = 1.65000
Sr  0.0000000495  3.9360341130  2.7212612625
Sr  3.2845195350  9.6249886590  2.7212612625
Sr  -3.2845193040  9.6249886590  2.7212612625
Sr  6.6932250165  7.6569716025  8.1637837875
Sr  3.4087055310  1.9680170565  8.1637837875
Sr  9.9777443700  1.9680170565  8.1637837875
Li  0.0000000990  7.7286704880  8.1637837875
Li  6.6932249670  3.8643352440  2.7212612625
8
scale = 1.70000
Sr  0.0000000510  4.0553078740  2.8037237250
Sr  3.3840504300  9.9166549820  2.8037237250
Sr  -3.3840501920  9.9166549820  2.8037237250
Sr  6.8960500170  7.8890010450  8.4111711750
Sr  3.5119996380  2.0276539370  8.4111711750
Sr  10.2801002600  2.0276539370  8.4111711750
Li  0.0000001020  7.9628726240  8.4111711750
Li  6.8960499660  3.9814363120  2.8037237250
8
scale = 1.75000
Sr  0.0000000525  4.1745816350  2.8861861875
Sr  3.4835813250  10.2083213050  2.8861861875
Sr  -3.4835810800  10.2083213050  2.8861861875
Sr  7.0988750175  8.1210304875  8.6585585625
Sr  3.6152937450  2.0872908175  8.6585585625
Sr  10.5824561500  2.0872908175  8.6585585625
Li  0.0000001050  8.1970747600  8.6585585625
Li  7.0988749650  4.0985373800  2.8861861875
8
scale = 1.80000
Sr  0.0000000540  4.2938553960  2.9686486500
Sr  3.5831122200  10.4999876280  2.9686486500
Sr  -3.5831119680  10.4999876280  2.9686486500
Sr  7.3017000180  8.3530599300  8.9059459500
Sr  3.7185878520  2.1469276980  8.9059459500
Sr  10.8848120400  2.1469276980  8.9059459500
Li  0.0000001080  8.4312768960  8.9059459500
Li  7.3016999640  4.2156384480  2.9686486500
8
scale = 1.85000
Sr  0.0000000555  4.4131291570  3.0511111125
Sr  3.6826431150  10.7916539510  3.0511111125
Sr  -3.6826428560  10.7916539510  3.0511111125
Sr  7.5045250185  8.5850893725  9.1533333375
Sr  3.8218819590  2.2065645785  9.1533333375
Sr  11.1871679300  2.2065645785  9.1533333375
Li  0.0000001110  8.6654790320  9.1533333375
Li  7.5045249630  4.3327395160  3.0511111125
8
scale = 1.90000
Sr  0.0000000570  4.5324029180  3.1335735750
Sr  3.7821740100  11.0833202740  3.1335735750
Sr  -3.7821737440  11.0833202740  3.1335735750
Sr  7.7073500190  8.8171188150  9.4007207250
Sr  3.9251760660  2.2662014590  9.4007207250
Sr  11.4895238200  2.2662014590  9.4007207250
Li  0.0000001140  8.8996811680  9.4007207250
Li  7.7073499620  4.4498405840  3.1335735750
8
scale = 1.95000
Sr  0.0000000585  4.6516766790  3.2160360375
Sr  3.8817049050  11.3749865970  3.2160360375
Sr  -3.8817046320  11.3749865970  3.2160360375
Sr  7.9101750195  9.0491482575  9.6481081125
Sr  4.0284701730  2.3258383395  9.6481081125
Sr  11.7918797100  2.3258383395  9.6481081125
Li  0.0000001170  9.1338833040  9.6481081125
Li  7.9101749610  4.5669416520  3.2160360375
8
scale = 2.00000
Sr  0.0000000600  4.7709504400  3.2984985000
Sr  3.9812358000  11.6666529200  3.2984985000
Sr  -3.9812355200  11.6666529200  3.2984985000
Sr  8.1130000200  9.2811777000  9.8954955000
Sr  4.1317642800  2.3854752200  9.8954955000
Sr  12.0942356000  2.3854752200  9.8954955000
Li  0.0000001200  9.3680854400  9.8954955000
Li  8.1129999600  4.6840427200  3.2984985000
8
scale = 2.05000
Sr  0.0000000615  4.8902242010  3.3809609625
Sr  4.0807666950  11.9583192430  3.3809609625
Sr  -4.0807664080  11.9583192430  3.3809609625
Sr  8.3158250205  9.5132071425  10.1428828875
Sr  4.2350583870  2.4451121005  10.1428828875
Sr  12.3965914900  2.4451121005  10.1428828875
Li  0.0000001230  9.6022875760  10.1428828875
Li  8.3158249590  4.8011437880  3.3809609625
8
scale = 2.10000
Sr  0.0000000630  5.0094979620  3.4634234250
Sr  4.1802975900  12.2499855660  3.4634234250
Sr  -4.1802972960  12.2499855660  3.4634234250
Sr  8.5186500210  9.7452365850  10.3902702750
Sr  4.3383524940  2.5047489810  10.3902702750
Sr  12.6989473800  2.5047489810  10.3902702750
Li  0.0000001260  9.8364897120  10.3902702750
Li  8.5186499580  4.9182448560  3.4634234250
8
scale = 2.15000
Sr  0.0000000645  5.1287717230  3.5458858875
Sr  4.2798284850  12.5416518890  3.5458858875
Sr  -4.2798281840  12.5416518890  3.5458858875
Sr  8.7214750215  9.9772660275  10.6376576625
Sr  4.4416466010  2.5643858615  10.6376576625
Sr  13.0013032700  2.5643858615  10.6376576625
Li  0.0000001290  10.0706918480  10.6376576625
Li  8.7214749570  5.0353459240  3.5458858875
8
scale = 2.20000
Sr  0.0000000660  5.2480454840  3.6283483500
Sr  4.3793593800  12.8333182120  3.6283483500
Sr  -4.3793590720  12.8333182120  3.6283483500
Sr  8.9243000220  10.2092954700  10.8850450500
Sr  4.5449407080  2.6240227420  10.8850450500
Sr  13.3036591600  2.6240227420  10.8850450500
Li  0.0000001320  10.3048939840  10.8850450500
Li  8.9242999560  5.1524469920  3.6283483500
8
scale = 2.25000
Sr  0.0000000675  5.3673192450  3.7108108125
Sr  4.4788902750  13.1249845350  3.7108108125
Sr  -4.4788899600  13.1249845350  3.7108108125
Sr  9.1271250225  10.4413249125  11.1324324375
Sr  4.6482348150  2.6836596225  11.1324324375
Sr  13.6060150500  2.6836596225  11.1324324375
Li  0.0000001350  10.5390961200  11.1324324375
Li  9.1271249550  5.2695480600  3.7108108125
8
scale = 2.30000
Sr  0.0000000690  5.4865930060  3.7932732750
Sr  4.5784211700  13.4166508580  3.7932732750
Sr  -4.5784208480  13.4166508580  3.7932732750
Sr  9.3299500230  10.6733543550  11.3798198250
Sr  4.7515289220  2.7432965030  11.3798198250
Sr  13.9083709400  2.7432965030  11.3798198250
Li  0.0000001380  10.7732982560  11.3798198250
Li  9.3299499540  5.3866491280  3.7932732750
8
scale = 2.35000
Sr  0.0000000705  5.6058667670  3.8757357375
Sr  4.6779520650  13.7083171810  3.8757357375
Sr  -4.6779517360  13.7083171810  3.8757357375
Sr  9.5327750235  10.9053837975  11.6272072125
Sr  4.8548230290  2.8029333835  11.6272072125
Sr  14.2107268300  2.8029333835  11.6272072125
Li  0.0000001410  11.0075003920  11.6272072125
Li  9.5327749530  5.5037501960  3.8757357375
8
scale = 2.40000
Sr  0.0000000720  5.7251405280  3.9581982000
Sr  4.7774829600  13.9999835040  3.9581982000
Sr  -4.7774826240  13.9999835040  3.9581982000
Sr  9.7356000240  11.1374132400  11.8745946000
Sr  4.9581171360  2.8625702640  11.8745946000
Sr  14.5130827200  2.8625702640  11.8745946000
Li  0.0000001440  11.2417025280  11.8745946000
Li  9.7355999520  5.6208512640  3.9581982000
8
scale = 2.45000
Sr  0.0000000735  5.8444142890  4.0406606625
Sr  4.8770138550  14.2916498270  4.0406606625
Sr  -4.8770135120  14.2916498270  4.0406606625
Sr  9.9384250245  11.3694426825  12.1219819875
Sr  5.0614112430  2.9222071445  12.1219819875
Sr  14.8154386100  2.9222071445  12.1219819875
Li  0.0000001470  11.4759046640  12.1219819875
Li  9.9384249510  5.7379523320  4.0406606625
